version 2
run General-0-20251103-14:40:17-6916
attr configname General
attr datetime 20251103-14:40:17
attr experiment General
attr inifile omnetpp.ini
attr iterationvars "$warmupPeriod=15, $numVehicles=3"
attr iterationvarsf warmupPeriod=15,numVehicles=3-
attr measurement "$warmupPeriod=15, $numVehicles=3"
attr network SatelliteHelloScenario
attr processid 6916
attr repetition 0
attr replication #0
attr resultdir results
attr runnumber 0
attr seedset 0
itervar numVehicles 3
itervar warmupPeriod 15
param *.playgroundSizeX 1000m
param *.playgroundSizeY 1000m
param *.playgroundSizeZ 1000km
param *.configurator.typename "\"Ipv4NetworkConfigurator\""
param *.configurator.assignDisjunctSubnetAddresses true
param *.configurator.addStaticRoutes true
param *.manager.autoShutdown true
param *.manager.updateInterval 0.1s
param *.manager.moduleType "\"space_veins.nodes.SatCar\""
param *.manager.host "\"localhost\""
param *.manager.port 9999
param *.manager.launchConfig "xmldoc(\"Null-Island-3by3-grid.launchd.xml\")"
param *.vehicleInserter.numVehicles 3
param *.physicalEnvironment.ground.typename "\"FlatGround\""
param *.useOsg false
param *.visualizer.osgVisualizer.typename "\"\""
param *.visualizer.*.radioVisualizer[0].displayRadios true
param *.visualizer.*.radioVisualizer[0].displayAntennaLobes true
param *.visualizer.*.radioVisualizer[0].radioFilter "\"*.node[*].satNic[0].radio\""
param *.visualizer.*.dataLinkVisualizer[0].displayLinks true
param *.visualizer.*.numMobilityVisualizers 3
param *.visualizer.*.mobilityVisualizer[*].displayMobility true
param *.visualizer.*.mobilityVisualizer[*].displayPositions true
param *.visualizer.*.mobilityVisualizer[*].displayOrientations true
param *.visualizer.*.mobilityVisualizer[*].displayVelocities true
param *.visualizer.*.mobilityVisualizer[*].displayMovementTrails true
param *.visualizer.*.mobilityVisualizer[0].moduleFilter "\"*.node[*].mobility *.leo*[*].mobility\""
param *.visualizer.*.mobilityVisualizer[1].moduleFilter "\"*.node[*].satNic[*].radio.antenna.mobility\""
param *.visualizer.*.mobilityVisualizer[1].positionCircleRadius 20
param *.visualizer.*.mobilityVisualizer[1].positionCircleFillColor "\"yellow\""
param *.visualizer.*.mobilityVisualizer[1].orientationFillColor "\"yellow\""
param *.visualizer.*.mobilityVisualizer[2].moduleFilter "\"**.wlan[*].radio.antenna.mobility\""
param *.visualizer.*.mobilityVisualizer[2].orientationFillColor "\"red\""
param *.sop.sumoNetXmlFile "xmldoc(\"Null-Island-3by3-grid.net.xml\")"
param *.sop.mobility.updateFromDisplayString false
param *.sop.mobility.initFromDisplayString false
param *.sop.mobility.initialX 400m
param *.sop.mobility.initialY 397.49m
param *.sop.mobility.initialZ 0m
param *.satelliteInserter.ignoreUnknownSatellites false
param *.satelliteInserter.wall_clock_sim_start_time_utc "\"2024-12-13-10-00-00\""
param *.leo*[*].mobility.typename "\"SGP4Mobility\""
param *.leo*[*].mobility.updateInterval 1s
param *.leo*[*].mobility.enableCache true
param *.leo*[*].mobility.precalculationIntervalInMinutes 16
param *.leo*[*].numApps 1
param *.leo*[*].app[0].typename "\"inet.applications.udpapp.UdpSink\""
param *.leo*[*].app[0].interface "\"satNic0\""
param *.leo*[*].app[0].localPort 5000
param *.leo*[*].app[0].receiveBroadcast true
param *.leo*[*].app[0].joinLocalMulticastGroups true
param *.leo*[*].numLoInterfaces 0
param *.leo*[*].numSatelliteNics 1
param *.node[*].mobility.typename "\"VeinsInetMobility\""
param *.node[*].numApps 1
param *.node[*].app[0].typename "\"inet.applications.udpapp.UdpBasicApp\""
param *.node[*].app[0].destAddresses "\"224.0.0.1\""
param *.node[*].app[0].startTime "uniform(5.0s, 5.1s)"
param *.node[*].app[0].packetName "\"Hello\""
param *.node[*].app[0].destPort 5000
param *.node[*].app[0].localPort 5000
param *.node[*].app[0].messageLength 5B
param *.node[*].app[0].sendInterval 1s
param *.node[*].app[0].receiveBroadcast true
param *.node[*].app[0].joinLocalMulticastGroups true
param *.leo*[*].hasIpv4 true
param *.node[*].numLoInterfaces 0
param *.node[*].useSamac false
param *.node[*].numSatelliteNics 1
param *.satelliteRadioMedium.typename "\"UnitDiskRadioMedium\""
param *.satelliteRadioMedium.mediumLimitCache.minElevationAngleV2S 25deg
param *.satelliteRadioMedium.mediumLimitCache.disableS2SCommunication true
param *.**.satNic[0].typename "\"SatelliteInterface\""
param *.**.satNic[0].mac.typename "\"AckingMac\""
param *.leo*[*].satNic[0].mac.bitrate 100Mbps
param *.node[*].satNic[0].mac.bitrate 10Mbps
param *.**.satNic[0].mac.headerLength 32B
param *.**.satNic[0].mac.fullDuplex true
param *.**.satNic[0].mac.useAck false
param *.**.satNic[0].radio.typename "\"UnitDiskRadio\""
param *.**.satNic[0].radio.radioMediumModule "\"satelliteRadioMedium\""
param *.**.satNic[0].radio.antenna.mobilityModule "\"^.^.^.mobility\""
param *.**.satNic[0].radio.transmitter.communicationRange 9999999km
param *.leo*[*].satNic[0].radio.transmitter.bitrate 100Mbps
param *.node[*].satNic[0].radio.transmitter.bitrate 10Mbps
param *.**.satNic[0].radio.transmitter.headerLength 8bit
param *.**.satNic[0].radio.transmitter.preambleDuration 0s
param *.leo*[*].satNic[0].radio.receiver.ignoreInterference false
param *.node[*].satNic[0].radio.receiver.ignoreInterference true
param *.wlanRadioMedium.typename "\"Ieee80211DimensionalRadioMedium\""
param *.**.wlan[*].opMode "\"p\""
param *.**.wlan[*].mgmt.typename "\"Ieee80211MgmtAdhoc\""
param *.**.wlan[*].agent.typename "\"\""
param *.**.wlan[*].radio.typename "\"Ieee80211DimensionalRadio\""
param *.**.wlan[*].radio.radioMediumModule "\"wlanRadioMedium\""
param *.**.wlan[*].radio.bandName "\"5.9 GHz\""
param *.**.wlan[*].radio.channelNumber 3
param *.**.wlan[*].radio.transmitter.power 100mW
param *.**.wlan[*].radio.bandwidth 10MHz
param *.**.wlan[*].radio.centerFrequency 5.89GHz
param *.**.wlan[*].radio.receiver.snirThreshold 0dB
param *.**.wlan[*].radio.receiver.energyDetection -65dBm
param *.**.wlan[*].radio.receiver.sensitivity -98dBm
param *.**.wlan[*].radio.**.modulation "\"QAM-16\""
param *.**.wlan[*].radio.antenna.mobility.typename "\"AttachedMobility\""
param *.**.wlan[*].radio.antenna.mobility.mobilityModule "\"^.^.^.^.mobility\""
param *.**.wlan[*].radio.antenna.mobility.offsetX -2.5m
param *.**.wlan[*].radio.antenna.mobility.offsetZ 1.5m
param *.**.wlan[*].radio.antenna.mobility.constraintAreaMinX 0m
param *.**.wlan[*].radio.antenna.mobility.constraintAreaMaxX 0m
param *.**.wlan[*].radio.antenna.mobility.constraintAreaMinY 0m
param *.**.wlan[*].radio.antenna.mobility.constraintAreaMaxY 0m
param *.**.wlan[*].radio.antenna.mobility.constraintAreaMinZ 0m
param *.**.wlan[*].radio.antenna.mobility.constraintAreaMaxZ 0m
param *.satelliteInserter.pathToTleFile "\"starlink_100_tle_run1.txt\""

scalar SatelliteHelloScenario.manager roiArea 0
scalar SatelliteHelloScenario.wlanRadioMedium.propagation "Arrival computation count" 4
scalar SatelliteHelloScenario.wlanRadioMedium "transmission count" 2
scalar SatelliteHelloScenario.wlanRadioMedium "signal send count" 4
scalar SatelliteHelloScenario.wlanRadioMedium "reception computation count" 4
scalar SatelliteHelloScenario.wlanRadioMedium "interference computation count" 15
scalar SatelliteHelloScenario.wlanRadioMedium "reception decision computation count" 3
scalar SatelliteHelloScenario.wlanRadioMedium "listening decision computation count" 8
scalar SatelliteHelloScenario.wlanRadioMedium "reception cache hit" 83.333333333333
attr unit %
scalar SatelliteHelloScenario.wlanRadioMedium "interference cache hit" 66.666666666667
attr unit %
scalar SatelliteHelloScenario.wlanRadioMedium "noise cache hit" 0
attr unit %
scalar SatelliteHelloScenario.wlanRadioMedium "snir cache hit" 50
attr unit %
scalar SatelliteHelloScenario.wlanRadioMedium "reception decision cache hit" 50
attr unit %
scalar SatelliteHelloScenario.wlanRadioMedium "reception result cache hit" 0
attr unit %
scalar SatelliteHelloScenario.satelliteRadioMedium.propagation "Arrival computation count" 0
scalar SatelliteHelloScenario.satelliteRadioMedium "transmission count" 0
scalar SatelliteHelloScenario.satelliteRadioMedium "signal send count" 0
scalar SatelliteHelloScenario.satelliteRadioMedium "reception computation count" 0
scalar SatelliteHelloScenario.satelliteRadioMedium "interference computation count" 3
scalar SatelliteHelloScenario.satelliteRadioMedium "reception decision computation count" 0
scalar SatelliteHelloScenario.satelliteRadioMedium "listening decision computation count" 3
scalar SatelliteHelloScenario.satelliteRadioMedium "reception cache hit" -nan
attr unit %
scalar SatelliteHelloScenario.satelliteRadioMedium "interference cache hit" -nan
attr unit %
scalar SatelliteHelloScenario.satelliteRadioMedium "noise cache hit" -nan
attr unit %
scalar SatelliteHelloScenario.satelliteRadioMedium "snir cache hit" -nan
attr unit %
scalar SatelliteHelloScenario.satelliteRadioMedium "reception decision cache hit" -nan
attr unit %
scalar SatelliteHelloScenario.satelliteRadioMedium "reception result cache hit" -nan
attr unit %
scalar SatelliteHelloScenario.globalStatistics numTotalCars:count 0
scalar SatelliteHelloScenario.globalStatistics numRemovedCars:count 0
scalar SatelliteHelloScenario.globalStatistics numCurrentCars:count 0
scalar SatelliteHelloScenario.node[0].wlan[0].mac.dcf.channelAccess.pendingQueue packetPopped:count 0
attr interpolationmode none
attr title "packet popped, count"
scalar SatelliteHelloScenario.node[0].wlan[0].mac.dcf.channelAccess.pendingQueue packetPopped:sum(packetBytes) 0
attr interpolationmode none
attr title "packet popped, sum(packetBytes)"
statistic SatelliteHelloScenario.node[0].wlan[0].mac.dcf.channelAccess.pendingQueue queueingTime:histogram
field count 0
field mean -nan
field stddev nan
field min nan
field max nan
field sum 0
field sqrsum 0
attr interpolationmode none
attr source queueingTime(packetPopped)
attr title "queueing times, histogram"
attr unit s
bin	-inf	0
bin	0	0
bin	1	0
scalar SatelliteHelloScenario.node[0].wlan[0].mac.dcf.channelAccess.pendingQueue queueLength:max nan
attr interpolationmode sample-hold
attr source "count(packetPushed) - count(packetPopped) - count(packetRemoved) - count(packetDropped)"
attr title "queue length, max"
scalar SatelliteHelloScenario.node[0].wlan[0].mac.dcf.channelAccess.pendingQueue queueLength:timeavg -nan
attr interpolationmode sample-hold
attr source "count(packetPushed) - count(packetPopped) - count(packetRemoved) - count(packetDropped)"
attr title "queue length, timeavg"
scalar SatelliteHelloScenario.node[0].wlan[0].mac.dcf.channelAccess.pendingQueue packetPushed:count 0
attr interpolationmode none
attr title "packet pushed, count"
scalar SatelliteHelloScenario.node[0].wlan[0].mac.dcf.channelAccess.pendingQueue packetPushed:sum(packetBytes) 0
attr interpolationmode none
attr title "packet pushed, sum(packetBytes)"
scalar SatelliteHelloScenario.node[0].wlan[0].mac.dcf.channelAccess.pendingQueue packetDropQueueOverflow:count 0
attr interpolationmode none
attr source packetDropReasonIsQueueOverflow(packetDropped)
attr title "packet drops: queue overflow, count"
scalar SatelliteHelloScenario.node[0].wlan[0].mac.dcf.channelAccess.pendingQueue packetDropQueueOverflow:sum(packetBytes) 0
attr interpolationmode none
attr source packetDropReasonIsQueueOverflow(packetDropped)
attr title "packet drops: queue overflow, sum(packetBytes)"
scalar SatelliteHelloScenario.node[0].wlan[0].mac.dcf.channelAccess.pendingQueue packetRemoved:count 0
attr interpolationmode none
attr title "packets removed, count"
scalar SatelliteHelloScenario.node[0].wlan[0].mac.dcf.channelAccess.pendingQueue packetRemoved:sum(packetBytes) 0
attr interpolationmode none
attr title "packets removed, sum(packetBytes)"
statistic SatelliteHelloScenario.node[0].wlan[0].mac.dcf.channelAccess.inProgressFrames queueingTime:histogram
field count 0
field mean -nan
field stddev nan
field min nan
field max nan
field sum 0
field sqrsum 0
attr interpolationmode none
attr source queueingTime(packetDequeued)
attr title "queueing times, histogram"
bin	-inf	0
bin	0	0
bin	1	0
scalar SatelliteHelloScenario.node[0].wlan[0].mac.dcf.channelAccess.inProgressFrames queueLength:max nan
attr interpolationmode sample-hold
attr source "count(packetEnqueued) - count(packetDequeued)"
attr title "queue length, max"
scalar SatelliteHelloScenario.node[0].wlan[0].mac.dcf.channelAccess.inProgressFrames queueLength:timeavg -nan
attr interpolationmode sample-hold
attr source "count(packetEnqueued) - count(packetDequeued)"
attr title "queue length, timeavg"
scalar SatelliteHelloScenario.node[0].wlan[0].mac.dcf.channelAccess.contention channelAccessGranted:count 0
attr title "channel access granted, count"
scalar SatelliteHelloScenario.node[0].wlan[0].mac.dcf.channelAccess.contention stateChanged:count 0
attr interpolationmode none
attr title "contention state changed, count"
scalar SatelliteHelloScenario.node[0].wlan[0].mac.dcf.channelAccess channelOwnershipChanged:count 0
attr interpolationmode sample-hold
attr title "channel ownership, count"
scalar SatelliteHelloScenario.node[0].wlan[0].mac.dcf.originatorMacDataService packetAggregated:count 0
attr title "packets aggregated, count"
scalar SatelliteHelloScenario.node[0].wlan[0].mac.dcf.originatorMacDataService packetFragmented:count 0
attr title "packets fragmented, count"
scalar SatelliteHelloScenario.node[0].wlan[0].mac.dcf.recipientMacDataService packetDeaggregated:count 0
attr title "packets deaggregated, count"
scalar SatelliteHelloScenario.node[0].wlan[0].mac.dcf.recipientMacDataService packetDefragmented:count 0
attr title "packets defragmented, count"
scalar SatelliteHelloScenario.node[0].wlan[0].mac.dcf.recipientMacDataService packetDropDuplicateDetected:count 0
attr interpolationmode none
attr source packetDropReasonIsDuplicateDetected(packetDropped)
attr title "packet drops: duplicate detected, count"
scalar SatelliteHelloScenario.node[0].wlan[0].mac.dcf.recipientMacDataService packetDropDuplicateDetected:sum(packetBytes) 0
attr interpolationmode none
attr source packetDropReasonIsDuplicateDetected(packetDropped)
attr title "packet drops: duplicate detected, sum(packetBytes)"
scalar SatelliteHelloScenario.node[0].wlan[0].mac.dcf.recoveryProcedure retryLimitReached:count 0
attr title "retry limit reached, count"
scalar SatelliteHelloScenario.node[0].wlan[0].mac.dcf frameSequenceFinished:count 0
attr title "finished frame sequences, count"
statistic SatelliteHelloScenario.node[0].wlan[0].mac.dcf frameSequenceDuration:histogram
field count 0
field mean -nan
field stddev nan
field min nan
field max nan
field sum 0
field sqrsum 0
attr source frameSequenceDuration(frameSequenceFinished)
attr title "frame sequence durations, histogram"
bin	-inf	0
bin	0	0
bin	1	0
statistic SatelliteHelloScenario.node[0].wlan[0].mac.dcf frameSequenceNumPackets:histogram
field count 0
field mean -nan
field stddev nan
field min nan
field max nan
field sum 0
field sqrsum 0
attr source frameSequenceNumPackets(frameSequenceFinished)
attr title "frame sequences: number of packets, histogram"
bin	-inf	0
bin	0	0
bin	1	0
scalar SatelliteHelloScenario.node[0].wlan[0].mac.dcf packetReceivedFromPeer:count 0
attr interpolationmode none
attr title "packets received, count"
scalar SatelliteHelloScenario.node[0].wlan[0].mac.dcf packetReceivedFromPeer:sum(packetBytes) 0
attr interpolationmode none
attr title "packets received, sum(packetBytes)"
scalar SatelliteHelloScenario.node[0].wlan[0].mac.dcf packetReceivedFromPeerUnicast:count 0
attr interpolationmode none
attr source ieee80211Unicast(packetReceivedFromPeer)
attr title "packets received: unicast, count"
scalar SatelliteHelloScenario.node[0].wlan[0].mac.dcf packetReceivedFromPeerUnicast:sum(packetBytes) 0
attr interpolationmode none
attr source ieee80211Unicast(packetReceivedFromPeer)
attr title "packets received: unicast, sum(packetBytes)"
scalar SatelliteHelloScenario.node[0].wlan[0].mac.dcf packetReceivedFromPeerMulticast:count 0
attr interpolationmode none
attr source ieee80211Multicast(packetReceivedFromPeer)
attr title "packets received: multicast, count"
scalar SatelliteHelloScenario.node[0].wlan[0].mac.dcf packetReceivedFromPeerMulticast:sum(packetBytes) 0
attr interpolationmode none
attr source ieee80211Multicast(packetReceivedFromPeer)
attr title "packets received: multicast, sum(packetBytes)"
scalar SatelliteHelloScenario.node[0].wlan[0].mac.dcf packetReceivedFromPeerBroadcast:count 0
attr interpolationmode none
attr source ieee80211Broadcast(packetReceivedFromPeer)
attr title "packets received: broadcast, count"
scalar SatelliteHelloScenario.node[0].wlan[0].mac.dcf packetReceivedFromPeerBroadcast:sum(packetBytes) 0
attr interpolationmode none
attr source ieee80211Broadcast(packetReceivedFromPeer)
attr title "packets received: broadcast, sum(packetBytes)"
scalar SatelliteHelloScenario.node[0].wlan[0].mac.dcf packetReceivedFromPeerWithRetry:count 0
attr interpolationmode none
attr source ieee80211Retry(packetReceivedFromPeer)
attr title "packets received: with retry, count"
scalar SatelliteHelloScenario.node[0].wlan[0].mac.dcf packetReceivedFromPeerWithRetry:sum(packetBytes) 0
attr interpolationmode none
attr source ieee80211Retry(packetReceivedFromPeer)
attr title "packets received: with retry, sum(packetBytes)"
scalar SatelliteHelloScenario.node[0].wlan[0].mac.dcf packetReceivedFromPeerWithoutRetry:count 0
attr interpolationmode none
attr source ieee80211NotRetry(packetReceivedFromPeer)
attr title "packets received: without retry, count"
scalar SatelliteHelloScenario.node[0].wlan[0].mac.dcf packetReceivedFromPeerWithoutRetry:sum(packetBytes) 0
attr interpolationmode none
attr source ieee80211NotRetry(packetReceivedFromPeer)
attr title "packets received: without retry, sum(packetBytes)"
scalar SatelliteHelloScenario.node[0].wlan[0].mac.dcf packetSentToPeer:count 0
attr interpolationmode none
attr title "packets sent, count"
scalar SatelliteHelloScenario.node[0].wlan[0].mac.dcf packetSentToPeer:sum(packetBytes) 0
attr interpolationmode none
attr title "packets sent, sum(packetBytes)"
scalar SatelliteHelloScenario.node[0].wlan[0].mac.dcf packetSentToPeerUnicast:count 0
attr interpolationmode none
attr source ieee80211Unicast(packetSentToPeer)
attr title "packets sent: unicast, count"
scalar SatelliteHelloScenario.node[0].wlan[0].mac.dcf packetSentToPeerUnicast:sum(packetBytes) 0
attr interpolationmode none
attr source ieee80211Unicast(packetSentToPeer)
attr title "packets sent: unicast, sum(packetBytes)"
scalar SatelliteHelloScenario.node[0].wlan[0].mac.dcf packetSentToPeerMulticast:count 0
attr interpolationmode none
attr source ieee80211Multicast(packetSentToPeer)
attr title "packets sent: multicast, count"
scalar SatelliteHelloScenario.node[0].wlan[0].mac.dcf packetSentToPeerMulticast:sum(packetBytes) 0
attr interpolationmode none
attr source ieee80211Multicast(packetSentToPeer)
attr title "packets sent: multicast, sum(packetBytes)"
scalar SatelliteHelloScenario.node[0].wlan[0].mac.dcf packetSentToPeerBroadcast:count 0
attr interpolationmode none
attr source ieee80211Broadcast(packetSentToPeer)
attr title "packets sent: broadcast , count"
scalar SatelliteHelloScenario.node[0].wlan[0].mac.dcf packetSentToPeerBroadcast:sum(packetBytes) 0
attr interpolationmode none
attr source ieee80211Broadcast(packetSentToPeer)
attr title "packets sent: broadcast , sum(packetBytes)"
scalar SatelliteHelloScenario.node[0].wlan[0].mac.dcf packetSentToPeerWithRetry:count 0
attr interpolationmode none
attr source ieee80211Retry(packetSentToPeer)
attr title "packets sent: with retry, count"
scalar SatelliteHelloScenario.node[0].wlan[0].mac.dcf packetSentToPeerWithRetry:sum(packetBytes) 0
attr interpolationmode none
attr source ieee80211Retry(packetSentToPeer)
attr title "packets sent: with retry, sum(packetBytes)"
scalar SatelliteHelloScenario.node[0].wlan[0].mac.dcf packetSentToPeerWithoutRetry:count 0
attr interpolationmode none
attr source ieee80211NotRetry(packetSentToPeer)
attr title "packets sent: without retry, count"
scalar SatelliteHelloScenario.node[0].wlan[0].mac.dcf packetSentToPeerWithoutRetry:sum(packetBytes) 0
attr interpolationmode none
attr source ieee80211NotRetry(packetSentToPeer)
attr title "packets sent: without retry, sum(packetBytes)"
scalar SatelliteHelloScenario.node[0].wlan[0].mac.dcf packetDrop:count 0
attr interpolationmode none
attr source packetDropped
attr title "packet drops, count"
scalar SatelliteHelloScenario.node[0].wlan[0].mac.dcf packetDrop:sum(packetBytes) 0
attr interpolationmode none
attr source packetDropped
attr title "packet drops, sum(packetBytes)"
scalar SatelliteHelloScenario.node[0].wlan[0].mac.dcf packetDropNotAddressedToUs:count 0
attr interpolationmode none
attr source packetDropReasonIsNotAddressedToUs(packetDropped)
attr title "packet drops: not addressed to us, count"
scalar SatelliteHelloScenario.node[0].wlan[0].mac.dcf packetDropNotAddressedToUs:sum(packetBytes) 0
attr interpolationmode none
attr source packetDropReasonIsNotAddressedToUs(packetDropped)
attr title "packet drops: not addressed to us, sum(packetBytes)"
scalar SatelliteHelloScenario.node[0].wlan[0].mac.dcf packetDropQueueOverflow:count 0
attr interpolationmode none
attr source packetDropReasonIsQueueOverflow(packetDropped)
attr title "packet drops: queue overflow, count"
scalar SatelliteHelloScenario.node[0].wlan[0].mac.dcf packetDropQueueOverflow:sum(packetBytes) 0
attr interpolationmode none
attr source packetDropReasonIsQueueOverflow(packetDropped)
attr title "packet drops: queue overflow, sum(packetBytes)"
scalar SatelliteHelloScenario.node[0].wlan[0].mac.dcf packetDropRetryLimitReached:count 0
attr interpolationmode none
attr source packetDropReasonIsRetryLimitReached(packetDropped)
attr title "packet drops: retry limit reached, count"
scalar SatelliteHelloScenario.node[0].wlan[0].mac.dcf packetDropRetryLimitReached:sum(packetBytes) 0
attr interpolationmode none
attr source packetDropReasonIsRetryLimitReached(packetDropped)
attr title "packet drops: retry limit reached, sum(packetBytes)"
scalar SatelliteHelloScenario.node[0].wlan[0].mac.dcf linkBroken:count 0
attr interpolationmode none
attr title "link breaks, count"
scalar SatelliteHelloScenario.node[0].wlan[0].mac packetReceivedFromLower:count 0
attr interpolationmode none
attr title "packets received from lower layer, count"
scalar SatelliteHelloScenario.node[0].wlan[0].mac packetReceivedFromLower:sum(packetBytes) 0
attr interpolationmode none
attr title "packets received from lower layer, sum(packetBytes)"
scalar SatelliteHelloScenario.node[0].wlan[0].mac packetSentToLower:count 0
attr interpolationmode none
attr title "packets sent to lower layer, count"
scalar SatelliteHelloScenario.node[0].wlan[0].mac packetSentToLower:sum(packetBytes) 0
attr interpolationmode none
attr title "packets sent to lower layer, sum(packetBytes)"
scalar SatelliteHelloScenario.node[0].wlan[0].mac packetReceivedFromUpper:count 0
attr interpolationmode none
attr title "packets received from upper layer, count"
scalar SatelliteHelloScenario.node[0].wlan[0].mac packetReceivedFromUpper:sum(packetBytes) 0
attr interpolationmode none
attr title "packets received from upper layer, sum(packetBytes)"
scalar SatelliteHelloScenario.node[0].wlan[0].mac packetSentToUpper:count 0
attr interpolationmode none
attr title "packets sent to upper layer, count"
scalar SatelliteHelloScenario.node[0].wlan[0].mac packetSentToUpper:sum(packetBytes) 0
attr interpolationmode none
attr title "packets sent to upper layer, sum(packetBytes)"
scalar SatelliteHelloScenario.node[0].wlan[0].mac packetDrop:count 0
attr interpolationmode none
attr source packetDropped
attr title "packet drops, count"
scalar SatelliteHelloScenario.node[0].wlan[0].mac packetDrop:sum(packetBytes) 0
attr interpolationmode none
attr source packetDropped
attr title "packet drops, sum(packetBytes)"
scalar SatelliteHelloScenario.node[0].wlan[0].mac packetDropIncorrectlyReceived:count 0
attr interpolationmode none
attr source packetDropReasonIsIncorrectlyReceived(packetDropped)
attr title "packet drops: incorrectly received, count"
scalar SatelliteHelloScenario.node[0].wlan[0].mac packetDropIncorrectlyReceived:sum(packetBytes) 0
attr interpolationmode none
attr source packetDropReasonIsIncorrectlyReceived(packetDropped)
attr title "packet drops: incorrectly received, sum(packetBytes)"
scalar SatelliteHelloScenario.node[0].wlan[0].mac packetDropNotAddressedToUs:count 0
attr interpolationmode none
attr source packetDropReasonIsNotAddressedToUs(packetDropped)
attr title "packet drops: not addressed to us, count"
scalar SatelliteHelloScenario.node[0].wlan[0].mac packetDropNotAddressedToUs:sum(packetBytes) 0
attr interpolationmode none
attr source packetDropReasonIsNotAddressedToUs(packetDropped)
attr title "packet drops: not addressed to us, sum(packetBytes)"
scalar SatelliteHelloScenario.node[0].wlan[0].mac packetDropQueueOverflow:count 0
attr interpolationmode none
attr source packetDropReasonIsQueueOverflow(packetDropped)
attr title "packet drops: queue overflow, count"
scalar SatelliteHelloScenario.node[0].wlan[0].mac packetDropQueueOverflow:sum(packetBytes) 0
attr interpolationmode none
attr source packetDropReasonIsQueueOverflow(packetDropped)
attr title "packet drops: queue overflow, sum(packetBytes)"
scalar SatelliteHelloScenario.node[0].wlan[0].mac packetDropRetryLimitReached:count 0
attr interpolationmode none
attr source packetDropReasonIsRetryLimitReached(packetDropped)
attr title "packet drops: retry limit reached, count"
scalar SatelliteHelloScenario.node[0].wlan[0].mac packetDropRetryLimitReached:sum(packetBytes) 0
attr interpolationmode none
attr source packetDropReasonIsRetryLimitReached(packetDropped)
attr title "packet drops: retry limit reached, sum(packetBytes)"
scalar SatelliteHelloScenario.node[0].wlan[0].mac packetDropDuplicateDetected:count 0
attr interpolationmode none
attr source packetDropReasonIsDuplicateDetected(packetDropped)
attr title "packet drops: duplicate detected, count"
scalar SatelliteHelloScenario.node[0].wlan[0].mac packetDropDuplicateDetected:sum(packetBytes) 0
attr interpolationmode none
attr source packetDropReasonIsDuplicateDetected(packetDropped)
attr title "packet drops: duplicate detected, sum(packetBytes)"
scalar SatelliteHelloScenario.node[0].wlan[0].mac packetDropOther:count 0
attr interpolationmode none
attr source packetDropReasonIsOther(packetDropped)
attr title "packet drops: other, count"
scalar SatelliteHelloScenario.node[0].wlan[0].mac packetDropOther:sum(packetBytes) 0
attr interpolationmode none
attr source packetDropReasonIsOther(packetDropped)
attr title "packet drops: other, sum(packetBytes)"
scalar SatelliteHelloScenario.node[0].wlan[0].mac linkBroken:count 0
attr interpolationmode none
attr title "link breaks, count"
statistic SatelliteHelloScenario.node[0].wlan[0].radio radioChannel:histogram
field count 0
field mean -nan
field stddev nan
field min nan
field max nan
field sum 0
field sqrsum 0
attr interpolationmode sample-hold
attr source radioChannelChanged
attr title "Radio channel, histogram"
bin	-inf	0
bin	0	0
bin	1	0
scalar SatelliteHelloScenario.node[0].wlan[0].radio radioMode:count 0
attr interpolationmode sample-hold
attr source radioModeChanged
attr title "Radio mode, count"
scalar SatelliteHelloScenario.node[0].wlan[0].radio receptionState:count 0
attr interpolationmode sample-hold
attr source receptionStateChanged
attr title "Radio reception state, count"
scalar SatelliteHelloScenario.node[0].wlan[0].radio transmissionState:count 0
attr interpolationmode sample-hold
attr source transmissionStateChanged
attr title "Radio transmission state, count"
statistic SatelliteHelloScenario.node[0].wlan[0].radio minSnir:histogram
field count 0
field mean -nan
field stddev nan
field min nan
field max nan
field sum 0
field sqrsum 0
attr source minimumSnir(packetSentToUpper)
attr title "Min SNIR, histogram"
bin	-inf	0
bin	0	0
bin	1	0
statistic SatelliteHelloScenario.node[0].wlan[0].radio packetErrorRate:histogram
field count 0
field mean -nan
field stddev nan
field min nan
field max nan
field sum 0
field sqrsum 0
attr source packetErrorRate(packetSentToUpper)
attr title "Packet error rate, histogram"
bin	-inf	0
bin	0	0
bin	1	0
statistic SatelliteHelloScenario.node[0].wlan[0].radio bitErrorRate:histogram
field count 0
field mean -nan
field stddev nan
field min nan
field max nan
field sum 0
field sqrsum 0
attr source bitErrorRate(packetSentToUpper)
attr title "Bit error rate, histogram"
bin	-inf	0
bin	0	0
bin	1	0
statistic SatelliteHelloScenario.node[0].wlan[0].radio symbolErrorRate:histogram
field count 0
field mean -nan
field stddev nan
field min nan
field max nan
field sum 0
field sqrsum 0
attr source symbolErrorRate(packetSentToUpper)
attr title "Symbol error rate, histogram"
bin	-inf	0
bin	0	0
bin	1	0
scalar SatelliteHelloScenario.node[0].ipv4.ip packetDropAddressResolutionFailed:count 0
attr interpolationmode none
attr source packetDropReasonIsAddressResolutionFailed(packetDropped)
attr title "packet drop: address resolution failed, count"
scalar SatelliteHelloScenario.node[0].ipv4.ip packetDropAddressResolutionFailed:sum(packetBytes) 0
attr interpolationmode none
attr source packetDropReasonIsAddressResolutionFailed(packetDropped)
attr title "packet drop: address resolution failed, sum(packetBytes)"
scalar SatelliteHelloScenario.node[0].ipv4.ip packetDropHopLimitReached:count 0
attr interpolationmode none
attr source packetDropReasonIsHopLimitReached(packetDropped)
attr title "packet drop: hop limit reached, count"
scalar SatelliteHelloScenario.node[0].ipv4.ip packetDropHopLimitReached:sum(packetBytes) 0
attr interpolationmode none
attr source packetDropReasonIsHopLimitReached(packetDropped)
attr title "packet drop: hop limit reached, sum(packetBytes)"
scalar SatelliteHelloScenario.node[0].ipv4.ip packetDropForwardingDisabled:count 0
attr interpolationmode none
attr source packetDropReasonIsForwardingDisabled(packetDropped)
attr title "packet drop: forwarding disabled, count"
scalar SatelliteHelloScenario.node[0].ipv4.ip packetDropForwardingDisabled:sum(packetBytes) 0
attr interpolationmode none
attr source packetDropReasonIsForwardingDisabled(packetDropped)
attr title "packet drop: forwarding disabled, sum(packetBytes)"
scalar SatelliteHelloScenario.node[0].ipv4.ip packetDropNoInterfaceFound:count 0
attr interpolationmode none
attr source packetDropReasonIsNoInterfaceFound(packetDropped)
attr title "packet drop: no interface found, count"
scalar SatelliteHelloScenario.node[0].ipv4.ip packetDropNoInterfaceFound:sum(packetBytes) 0
attr interpolationmode none
attr source packetDropReasonIsNoInterfaceFound(packetDropped)
attr title "packet drop: no interface found, sum(packetBytes)"
scalar SatelliteHelloScenario.node[0].ipv4.ip packetDropNoRouteFound:count 0
attr interpolationmode none
attr source packetDropReasonIsNoRouteFound(packetDropped)
attr title "packet drop: no route found, count"
scalar SatelliteHelloScenario.node[0].ipv4.ip packetDropNoRouteFound:sum(packetBytes) 0
attr interpolationmode none
attr source packetDropReasonIsNoRouteFound(packetDropped)
attr title "packet drop: no route found, sum(packetBytes)"
scalar SatelliteHelloScenario.node[0].ipv4.ip packetDropUndefined:count 0
attr interpolationmode none
attr source packetDropReasonIsUndefined(packetDropped)
attr title "packet drop: undefined, count"
scalar SatelliteHelloScenario.node[0].ipv4.ip packetDropUndefined:sum(packetBytes) 0
attr interpolationmode none
attr source packetDropReasonIsUndefined(packetDropped)
attr title "packet drop: undefined, sum(packetBytes)"
scalar SatelliteHelloScenario.node[0].ipv4.arp arpResolutionFailed:count 0
attr title "ARP failed resolutions, count"
scalar SatelliteHelloScenario.node[0].ipv4.arp arpResolutionCompleted:count 0
attr title "ARP completed resolutions, count"
scalar SatelliteHelloScenario.node[0].ipv4.arp arpResolutionInitiated:count 0
attr title "ARP initiated resolutions, count"
scalar SatelliteHelloScenario.node[0].ipv4.arp arpReplySent:count 0
attr source arpReplySent
attr title "ARP replies sent, count"
scalar SatelliteHelloScenario.node[0].ipv4.arp arpReplySent:sum(packetBytes) 0
attr source arpReplySent
attr title "ARP replies sent, sum(packetBytes)"
scalar SatelliteHelloScenario.node[0].ipv4.arp arpRequestSent:count 0
attr source arpRequestSent
attr title "ARP request sent, count"
scalar SatelliteHelloScenario.node[0].ipv4.arp arpRequestSent:sum(packetBytes) 0
attr source arpRequestSent
attr title "ARP request sent, sum(packetBytes)"
scalar SatelliteHelloScenario.node[0].udp packetReceived:count 0
attr interpolationmode none
attr source packetReceived
attr title "packets received, count"
scalar SatelliteHelloScenario.node[0].udp packetReceived:sum(packetBytes) 0
attr interpolationmode none
attr source packetReceived
attr title "packets received, sum(packetBytes)"
scalar SatelliteHelloScenario.node[0].udp packetSent:count 0
attr interpolationmode none
attr source packetSent
attr title "packets sent, count"
scalar SatelliteHelloScenario.node[0].udp packetSent:sum(packetBytes) 0
attr interpolationmode none
attr source packetSent
attr title "packets sent, sum(packetBytes)"
scalar SatelliteHelloScenario.node[0].udp passedUpPk:count 0
attr interpolationmode none
attr source packetSentToUpper
attr title "packets passed up, count"
scalar SatelliteHelloScenario.node[0].udp droppedPkWrongPort:count 0
attr interpolationmode none
attr source packetDropReasonIsNoPortFound(packetDropped)
attr title "packets dropped (wrong port), count"
scalar SatelliteHelloScenario.node[0].udp droppedPkBadChecksum:count 0
attr interpolationmode none
attr source packetDropReasonIsIncorrectlyReceived(packetDropped)
attr title "packets dropped (checksum error), count"
scalar SatelliteHelloScenario.node[0].app[0] "packets sent" 1
scalar SatelliteHelloScenario.node[0].app[0] "packets received" 0
scalar SatelliteHelloScenario.node[0].app[0] packetReceived:count 0
attr interpolationmode none
attr source packetReceived
attr title "packets received, count"
scalar SatelliteHelloScenario.node[0].app[0] packetReceived:sum(packetBytes) 0
attr interpolationmode none
attr source packetReceived
attr title "packets received, sum(packetBytes)"
statistic SatelliteHelloScenario.node[0].app[0] rcvdPkLifetime:stats
field count 0
field mean -nan
field stddev nan
field min nan
field max nan
field sum 0
field sqrsum 0
attr interpolationmode none
attr source dataAge(packetReceived)
attr title "received packet lifetime, stats"
attr unit s
scalar SatelliteHelloScenario.node[0].app[0] packetSent:count 0
attr interpolationmode none
attr source packetSent
attr title "packets sent, count"
scalar SatelliteHelloScenario.node[0].app[0] packetSent:sum(packetBytes) 0
attr interpolationmode none
attr source packetSent
attr title "packets sent, sum(packetBytes)"
scalar SatelliteHelloScenario.node[0].satNic[0].mac.queue packetPopped:count 0
attr interpolationmode none
attr title "packet popped, count"
scalar SatelliteHelloScenario.node[0].satNic[0].mac.queue packetPopped:sum(packetBytes) 0
attr interpolationmode none
attr title "packet popped, sum(packetBytes)"
statistic SatelliteHelloScenario.node[0].satNic[0].mac.queue queueingTime:histogram
field count 0
field mean -nan
field stddev nan
field min nan
field max nan
field sum 0
field sqrsum 0
attr interpolationmode none
attr source queueingTime(packetPopped)
attr title "queueing times, histogram"
attr unit s
bin	-inf	0
bin	0	0
bin	1	0
scalar SatelliteHelloScenario.node[0].satNic[0].mac.queue queueLength:max nan
attr interpolationmode sample-hold
attr source "count(packetPushed) - count(packetPopped) - count(packetRemoved) - count(packetDropped)"
attr title "queue length, max"
scalar SatelliteHelloScenario.node[0].satNic[0].mac.queue queueLength:timeavg -nan
attr interpolationmode sample-hold
attr source "count(packetPushed) - count(packetPopped) - count(packetRemoved) - count(packetDropped)"
attr title "queue length, timeavg"
scalar SatelliteHelloScenario.node[0].satNic[0].mac.queue packetPushed:count 0
attr interpolationmode none
attr title "packet pushed, count"
scalar SatelliteHelloScenario.node[0].satNic[0].mac.queue packetPushed:sum(packetBytes) 0
attr interpolationmode none
attr title "packet pushed, sum(packetBytes)"
scalar SatelliteHelloScenario.node[0].satNic[0].mac.queue packetDropQueueOverflow:count 0
attr interpolationmode none
attr source packetDropReasonIsQueueOverflow(packetDropped)
attr title "packet drops: queue overflow, count"
scalar SatelliteHelloScenario.node[0].satNic[0].mac.queue packetDropQueueOverflow:sum(packetBytes) 0
attr interpolationmode none
attr source packetDropReasonIsQueueOverflow(packetDropped)
attr title "packet drops: queue overflow, sum(packetBytes)"
scalar SatelliteHelloScenario.node[0].satNic[0].mac.queue packetRemoved:count 0
attr interpolationmode none
attr title "packets removed, count"
scalar SatelliteHelloScenario.node[0].satNic[0].mac.queue packetRemoved:sum(packetBytes) 0
attr interpolationmode none
attr title "packets removed, sum(packetBytes)"
scalar SatelliteHelloScenario.node[0].satNic[0].mac rcvdPkFromLl:count 0
attr interpolationmode none
attr source packetReceivedFromLower
attr title "packets received from lower layer, count"
scalar SatelliteHelloScenario.node[0].satNic[0].mac rcvdPkFromLl:sum(packetBytes) 0
attr interpolationmode none
attr source packetReceivedFromLower
attr title "packets received from lower layer, sum(packetBytes)"
scalar SatelliteHelloScenario.node[0].satNic[0].mac sentDownPk:count 0
attr interpolationmode none
attr source packetSentToLower
attr title "packets sent to lower layer, count"
scalar SatelliteHelloScenario.node[0].satNic[0].mac sentDownPk:sum(packetBytes) 0
attr interpolationmode none
attr source packetSentToLower
attr title "packets sent to lower layer, sum(packetBytes)"
scalar SatelliteHelloScenario.node[0].satNic[0].mac rcvdPkFromHl:count 0
attr interpolationmode none
attr source packetReceivedFromUpper
attr title "packets received from higher layer, count"
scalar SatelliteHelloScenario.node[0].satNic[0].mac rcvdPkFromHl:sum(packetBytes) 0
attr interpolationmode none
attr source packetReceivedFromUpper
attr title "packets received from higher layer, sum(packetBytes)"
scalar SatelliteHelloScenario.node[0].satNic[0].mac passedUpPk:count 0
attr interpolationmode none
attr source packetSentToUpper
attr title "packets passed to higher layer, count"
scalar SatelliteHelloScenario.node[0].satNic[0].mac passedUpPk:sum(packetBytes) 0
attr interpolationmode none
attr source packetSentToUpper
attr title "packets passed to higher layer, sum(packetBytes)"
scalar SatelliteHelloScenario.node[0].satNic[0].mac packetDropIncorrectlyReceived:count 0
attr interpolationmode none
attr source packetDropReasonIsIncorrectlyReceived(packetDropped)
attr title "packet drop: incorrectly received, count"
scalar SatelliteHelloScenario.node[0].satNic[0].mac packetDropIncorrectlyReceived:sum(packetBytes) 0
attr interpolationmode none
attr source packetDropReasonIsIncorrectlyReceived(packetDropped)
attr title "packet drop: incorrectly received, sum(packetBytes)"
scalar SatelliteHelloScenario.node[0].satNic[0].mac packetDropInterfaceDown:count 0
attr interpolationmode none
attr source packetDropReasonIsInterfaceDown(packetDropped)
attr title "packet drop: interface down, count"
scalar SatelliteHelloScenario.node[0].satNic[0].mac packetDropInterfaceDown:sum(packetBytes) 0
attr interpolationmode none
attr source packetDropReasonIsInterfaceDown(packetDropped)
attr title "packet drop: interface down, sum(packetBytes)"
scalar SatelliteHelloScenario.node[0].satNic[0].mac packetDropNotAddressedToUs:count 0
attr interpolationmode none
attr source packetDropReasonIsNotAddressedToUs(packetDropped)
attr title "packet drop: not addressed to us, count"
scalar SatelliteHelloScenario.node[0].satNic[0].mac packetDropNotAddressedToUs:sum(packetBytes) 0
attr interpolationmode none
attr source packetDropReasonIsNotAddressedToUs(packetDropped)
attr title "packet drop: not addressed to us, sum(packetBytes)"
scalar SatelliteHelloScenario.node[0].satNic[0].mac linkBroken:count 0
attr interpolationmode none
attr source linkBroken
attr title "link break, count"
scalar SatelliteHelloScenario.node[0].satNic[0].radio radioMode:count 0
attr interpolationmode sample-hold
attr source radioModeChanged
attr title "Radio mode, count"
scalar SatelliteHelloScenario.node[0].satNic[0].radio receptionState:count 0
attr interpolationmode sample-hold
attr source receptionStateChanged
attr title "Radio reception state, count"
scalar SatelliteHelloScenario.node[0].satNic[0].radio transmissionState:count 0
attr interpolationmode sample-hold
attr source transmissionStateChanged
attr title "Radio transmission state, count"
statistic SatelliteHelloScenario.node[0].satNic[0].radio minSnir:histogram
field count 0
field mean -nan
field stddev nan
field min nan
field max nan
field sum 0
field sqrsum 0
attr source minimumSnir(packetSentToUpper)
attr title "Min SNIR, histogram"
bin	-inf	0
bin	0	0
bin	1	0
statistic SatelliteHelloScenario.node[0].satNic[0].radio packetErrorRate:histogram
field count 0
field mean -nan
field stddev nan
field min nan
field max nan
field sum 0
field sqrsum 0
attr source packetErrorRate(packetSentToUpper)
attr title "Packet error rate, histogram"
bin	-inf	0
bin	0	0
bin	1	0
statistic SatelliteHelloScenario.node[0].satNic[0].radio bitErrorRate:histogram
field count 0
field mean -nan
field stddev nan
field min nan
field max nan
field sum 0
field sqrsum 0
attr source bitErrorRate(packetSentToUpper)
attr title "Bit error rate, histogram"
bin	-inf	0
bin	0	0
bin	1	0
statistic SatelliteHelloScenario.node[0].satNic[0].radio symbolErrorRate:histogram
field count 0
field mean -nan
field stddev nan
field min nan
field max nan
field sum 0
field sqrsum 0
attr source symbolErrorRate(packetSentToUpper)
attr title "Symbol error rate, histogram"
bin	-inf	0
bin	0	0
bin	1	0
scalar SatelliteHelloScenario.node[0].vehicleStatistics wlanPacketEndToEndDelay:min nan
attr source space_veins_vehicleStatistics_wlanPacketEndToEndDelay
scalar SatelliteHelloScenario.node[0].vehicleStatistics wlanPacketEndToEndDelay:max nan
attr source space_veins_vehicleStatistics_wlanPacketEndToEndDelay
scalar SatelliteHelloScenario.node[0].vehicleStatistics wlanPacketEndToEndDelay:avg -nan
attr source space_veins_vehicleStatistics_wlanPacketEndToEndDelay
scalar SatelliteHelloScenario.node[0].vehicleStatistics registeredVehiclesPerSchedule:min nan
attr source space_veins_vehicleStatistics_registeredVehiclesPerSchedule
scalar SatelliteHelloScenario.node[0].vehicleStatistics registeredVehiclesPerSchedule:max nan
attr source space_veins_vehicleStatistics_registeredVehiclesPerSchedule
scalar SatelliteHelloScenario.node[0].vehicleStatistics registeredVehiclesPerSchedule:avg -nan
attr source space_veins_vehicleStatistics_registeredVehiclesPerSchedule
scalar SatelliteHelloScenario.node[0].vehicleStatistics vehAppLat:min nan
attr source space_veins_vehicleStatistics_applLayerSatelliteLatency
scalar SatelliteHelloScenario.node[0].vehicleStatistics vehAppLat:max nan
attr source space_veins_vehicleStatistics_applLayerSatelliteLatency
scalar SatelliteHelloScenario.node[0].vehicleStatistics vehAppLat:avg -nan
attr source space_veins_vehicleStatistics_applLayerSatelliteLatency
scalar SatelliteHelloScenario.node[0].vehicleStatistics vehAppRtt:min nan
attr source space_veins_vehicleStatistics_applLayerRoundTripTime
scalar SatelliteHelloScenario.node[0].vehicleStatistics vehAppRtt:max nan
attr source space_veins_vehicleStatistics_applLayerRoundTripTime
scalar SatelliteHelloScenario.node[0].vehicleStatistics vehAppRtt:avg -nan
attr source space_veins_vehicleStatistics_applLayerRoundTripTime
scalar SatelliteHelloScenario.node[0].vehicleStatistics receivedSatelliteRegistrationAcks:count 0
attr source space_veins_vehicleStatistics_receivedSatelliteRegistrationAcks
scalar SatelliteHelloScenario.node[0].vehicleStatistics missedSatelliteRegistrationAcks:count 0
attr source space_veins_vehicleStatistics_missedSatelliteRegistrationAcks
scalar SatelliteHelloScenario.node[0].vehicleStatistics receivedSatelliteRegistrationMessages:count 0
attr source space_veins_vehicleStatistics_receivedSatelliteRegistrationMessages
scalar SatelliteHelloScenario.node[0].vehicleStatistics sendSatelliteRegistrationMessages:count 0
attr source space_veins_vehicleStatistics_sendSatelliteRegistrationMessages
scalar SatelliteHelloScenario.node[0].vehicleStatistics receivedWlanSchedules:count 0
attr source space_veins_vehicleStatistics_receivedWlanSchedules
scalar SatelliteHelloScenario.node[0].vehicleStatistics sendWlanSchedules:count 0
attr source space_veins_vehicleStatistics_sendWlanSchedules
scalar SatelliteHelloScenario.node[0].vehicleStatistics receivedWlanPackets:count 0
attr source space_veins_vehicleStatistics_receivedWlanPackets
scalar SatelliteHelloScenario.node[0].vehicleStatistics sendWlanPackets:count 0
attr source space_veins_vehicleStatistics_sendWlanPackets
scalar SatelliteHelloScenario.node[0].vehicleStatistics receivedSatellitePackets:count 0
attr source space_veins_vehicleStatistics_receivedSatellitePackets
scalar SatelliteHelloScenario.node[0].vehicleStatistics sendSatellitePackets:count 0
attr source space_veins_vehicleStatistics_sendSatellitePackets
scalar SatelliteHelloScenario.node[1].wlan[0].mac.dcf.channelAccess.pendingQueue packetPopped:count 0
attr interpolationmode none
attr title "packet popped, count"
scalar SatelliteHelloScenario.node[1].wlan[0].mac.dcf.channelAccess.pendingQueue packetPopped:sum(packetBytes) 0
attr interpolationmode none
attr title "packet popped, sum(packetBytes)"
statistic SatelliteHelloScenario.node[1].wlan[0].mac.dcf.channelAccess.pendingQueue queueingTime:histogram
field count 0
field mean -nan
field stddev nan
field min nan
field max nan
field sum 0
field sqrsum 0
attr interpolationmode none
attr source queueingTime(packetPopped)
attr title "queueing times, histogram"
attr unit s
bin	-inf	0
bin	0	0
bin	1	0
scalar SatelliteHelloScenario.node[1].wlan[0].mac.dcf.channelAccess.pendingQueue queueLength:max nan
attr interpolationmode sample-hold
attr source "count(packetPushed) - count(packetPopped) - count(packetRemoved) - count(packetDropped)"
attr title "queue length, max"
scalar SatelliteHelloScenario.node[1].wlan[0].mac.dcf.channelAccess.pendingQueue queueLength:timeavg -nan
attr interpolationmode sample-hold
attr source "count(packetPushed) - count(packetPopped) - count(packetRemoved) - count(packetDropped)"
attr title "queue length, timeavg"
scalar SatelliteHelloScenario.node[1].wlan[0].mac.dcf.channelAccess.pendingQueue packetPushed:count 0
attr interpolationmode none
attr title "packet pushed, count"
scalar SatelliteHelloScenario.node[1].wlan[0].mac.dcf.channelAccess.pendingQueue packetPushed:sum(packetBytes) 0
attr interpolationmode none
attr title "packet pushed, sum(packetBytes)"
scalar SatelliteHelloScenario.node[1].wlan[0].mac.dcf.channelAccess.pendingQueue packetDropQueueOverflow:count 0
attr interpolationmode none
attr source packetDropReasonIsQueueOverflow(packetDropped)
attr title "packet drops: queue overflow, count"
scalar SatelliteHelloScenario.node[1].wlan[0].mac.dcf.channelAccess.pendingQueue packetDropQueueOverflow:sum(packetBytes) 0
attr interpolationmode none
attr source packetDropReasonIsQueueOverflow(packetDropped)
attr title "packet drops: queue overflow, sum(packetBytes)"
scalar SatelliteHelloScenario.node[1].wlan[0].mac.dcf.channelAccess.pendingQueue packetRemoved:count 0
attr interpolationmode none
attr title "packets removed, count"
scalar SatelliteHelloScenario.node[1].wlan[0].mac.dcf.channelAccess.pendingQueue packetRemoved:sum(packetBytes) 0
attr interpolationmode none
attr title "packets removed, sum(packetBytes)"
statistic SatelliteHelloScenario.node[1].wlan[0].mac.dcf.channelAccess.inProgressFrames queueingTime:histogram
field count 0
field mean -nan
field stddev nan
field min nan
field max nan
field sum 0
field sqrsum 0
attr interpolationmode none
attr source queueingTime(packetDequeued)
attr title "queueing times, histogram"
bin	-inf	0
bin	0	0
bin	1	0
scalar SatelliteHelloScenario.node[1].wlan[0].mac.dcf.channelAccess.inProgressFrames queueLength:max nan
attr interpolationmode sample-hold
attr source "count(packetEnqueued) - count(packetDequeued)"
attr title "queue length, max"
scalar SatelliteHelloScenario.node[1].wlan[0].mac.dcf.channelAccess.inProgressFrames queueLength:timeavg -nan
attr interpolationmode sample-hold
attr source "count(packetEnqueued) - count(packetDequeued)"
attr title "queue length, timeavg"
scalar SatelliteHelloScenario.node[1].wlan[0].mac.dcf.channelAccess.contention channelAccessGranted:count 0
attr title "channel access granted, count"
scalar SatelliteHelloScenario.node[1].wlan[0].mac.dcf.channelAccess.contention stateChanged:count 0
attr interpolationmode none
attr title "contention state changed, count"
scalar SatelliteHelloScenario.node[1].wlan[0].mac.dcf.channelAccess channelOwnershipChanged:count 0
attr interpolationmode sample-hold
attr title "channel ownership, count"
scalar SatelliteHelloScenario.node[1].wlan[0].mac.dcf.originatorMacDataService packetAggregated:count 0
attr title "packets aggregated, count"
scalar SatelliteHelloScenario.node[1].wlan[0].mac.dcf.originatorMacDataService packetFragmented:count 0
attr title "packets fragmented, count"
scalar SatelliteHelloScenario.node[1].wlan[0].mac.dcf.recipientMacDataService packetDeaggregated:count 0
attr title "packets deaggregated, count"
scalar SatelliteHelloScenario.node[1].wlan[0].mac.dcf.recipientMacDataService packetDefragmented:count 0
attr title "packets defragmented, count"
scalar SatelliteHelloScenario.node[1].wlan[0].mac.dcf.recipientMacDataService packetDropDuplicateDetected:count 0
attr interpolationmode none
attr source packetDropReasonIsDuplicateDetected(packetDropped)
attr title "packet drops: duplicate detected, count"
scalar SatelliteHelloScenario.node[1].wlan[0].mac.dcf.recipientMacDataService packetDropDuplicateDetected:sum(packetBytes) 0
attr interpolationmode none
attr source packetDropReasonIsDuplicateDetected(packetDropped)
attr title "packet drops: duplicate detected, sum(packetBytes)"
scalar SatelliteHelloScenario.node[1].wlan[0].mac.dcf.recoveryProcedure retryLimitReached:count 0
attr title "retry limit reached, count"
scalar SatelliteHelloScenario.node[1].wlan[0].mac.dcf frameSequenceFinished:count 0
attr title "finished frame sequences, count"
statistic SatelliteHelloScenario.node[1].wlan[0].mac.dcf frameSequenceDuration:histogram
field count 0
field mean -nan
field stddev nan
field min nan
field max nan
field sum 0
field sqrsum 0
attr source frameSequenceDuration(frameSequenceFinished)
attr title "frame sequence durations, histogram"
bin	-inf	0
bin	0	0
bin	1	0
statistic SatelliteHelloScenario.node[1].wlan[0].mac.dcf frameSequenceNumPackets:histogram
field count 0
field mean -nan
field stddev nan
field min nan
field max nan
field sum 0
field sqrsum 0
attr source frameSequenceNumPackets(frameSequenceFinished)
attr title "frame sequences: number of packets, histogram"
bin	-inf	0
bin	0	0
bin	1	0
scalar SatelliteHelloScenario.node[1].wlan[0].mac.dcf packetReceivedFromPeer:count 0
attr interpolationmode none
attr title "packets received, count"
scalar SatelliteHelloScenario.node[1].wlan[0].mac.dcf packetReceivedFromPeer:sum(packetBytes) 0
attr interpolationmode none
attr title "packets received, sum(packetBytes)"
scalar SatelliteHelloScenario.node[1].wlan[0].mac.dcf packetReceivedFromPeerUnicast:count 0
attr interpolationmode none
attr source ieee80211Unicast(packetReceivedFromPeer)
attr title "packets received: unicast, count"
scalar SatelliteHelloScenario.node[1].wlan[0].mac.dcf packetReceivedFromPeerUnicast:sum(packetBytes) 0
attr interpolationmode none
attr source ieee80211Unicast(packetReceivedFromPeer)
attr title "packets received: unicast, sum(packetBytes)"
scalar SatelliteHelloScenario.node[1].wlan[0].mac.dcf packetReceivedFromPeerMulticast:count 0
attr interpolationmode none
attr source ieee80211Multicast(packetReceivedFromPeer)
attr title "packets received: multicast, count"
scalar SatelliteHelloScenario.node[1].wlan[0].mac.dcf packetReceivedFromPeerMulticast:sum(packetBytes) 0
attr interpolationmode none
attr source ieee80211Multicast(packetReceivedFromPeer)
attr title "packets received: multicast, sum(packetBytes)"
scalar SatelliteHelloScenario.node[1].wlan[0].mac.dcf packetReceivedFromPeerBroadcast:count 0
attr interpolationmode none
attr source ieee80211Broadcast(packetReceivedFromPeer)
attr title "packets received: broadcast, count"
scalar SatelliteHelloScenario.node[1].wlan[0].mac.dcf packetReceivedFromPeerBroadcast:sum(packetBytes) 0
attr interpolationmode none
attr source ieee80211Broadcast(packetReceivedFromPeer)
attr title "packets received: broadcast, sum(packetBytes)"
scalar SatelliteHelloScenario.node[1].wlan[0].mac.dcf packetReceivedFromPeerWithRetry:count 0
attr interpolationmode none
attr source ieee80211Retry(packetReceivedFromPeer)
attr title "packets received: with retry, count"
scalar SatelliteHelloScenario.node[1].wlan[0].mac.dcf packetReceivedFromPeerWithRetry:sum(packetBytes) 0
attr interpolationmode none
attr source ieee80211Retry(packetReceivedFromPeer)
attr title "packets received: with retry, sum(packetBytes)"
scalar SatelliteHelloScenario.node[1].wlan[0].mac.dcf packetReceivedFromPeerWithoutRetry:count 0
attr interpolationmode none
attr source ieee80211NotRetry(packetReceivedFromPeer)
attr title "packets received: without retry, count"
scalar SatelliteHelloScenario.node[1].wlan[0].mac.dcf packetReceivedFromPeerWithoutRetry:sum(packetBytes) 0
attr interpolationmode none
attr source ieee80211NotRetry(packetReceivedFromPeer)
attr title "packets received: without retry, sum(packetBytes)"
scalar SatelliteHelloScenario.node[1].wlan[0].mac.dcf packetSentToPeer:count 0
attr interpolationmode none
attr title "packets sent, count"
scalar SatelliteHelloScenario.node[1].wlan[0].mac.dcf packetSentToPeer:sum(packetBytes) 0
attr interpolationmode none
attr title "packets sent, sum(packetBytes)"
scalar SatelliteHelloScenario.node[1].wlan[0].mac.dcf packetSentToPeerUnicast:count 0
attr interpolationmode none
attr source ieee80211Unicast(packetSentToPeer)
attr title "packets sent: unicast, count"
scalar SatelliteHelloScenario.node[1].wlan[0].mac.dcf packetSentToPeerUnicast:sum(packetBytes) 0
attr interpolationmode none
attr source ieee80211Unicast(packetSentToPeer)
attr title "packets sent: unicast, sum(packetBytes)"
scalar SatelliteHelloScenario.node[1].wlan[0].mac.dcf packetSentToPeerMulticast:count 0
attr interpolationmode none
attr source ieee80211Multicast(packetSentToPeer)
attr title "packets sent: multicast, count"
scalar SatelliteHelloScenario.node[1].wlan[0].mac.dcf packetSentToPeerMulticast:sum(packetBytes) 0
attr interpolationmode none
attr source ieee80211Multicast(packetSentToPeer)
attr title "packets sent: multicast, sum(packetBytes)"
scalar SatelliteHelloScenario.node[1].wlan[0].mac.dcf packetSentToPeerBroadcast:count 0
attr interpolationmode none
attr source ieee80211Broadcast(packetSentToPeer)
attr title "packets sent: broadcast , count"
scalar SatelliteHelloScenario.node[1].wlan[0].mac.dcf packetSentToPeerBroadcast:sum(packetBytes) 0
attr interpolationmode none
attr source ieee80211Broadcast(packetSentToPeer)
attr title "packets sent: broadcast , sum(packetBytes)"
scalar SatelliteHelloScenario.node[1].wlan[0].mac.dcf packetSentToPeerWithRetry:count 0
attr interpolationmode none
attr source ieee80211Retry(packetSentToPeer)
attr title "packets sent: with retry, count"
scalar SatelliteHelloScenario.node[1].wlan[0].mac.dcf packetSentToPeerWithRetry:sum(packetBytes) 0
attr interpolationmode none
attr source ieee80211Retry(packetSentToPeer)
attr title "packets sent: with retry, sum(packetBytes)"
scalar SatelliteHelloScenario.node[1].wlan[0].mac.dcf packetSentToPeerWithoutRetry:count 0
attr interpolationmode none
attr source ieee80211NotRetry(packetSentToPeer)
attr title "packets sent: without retry, count"
scalar SatelliteHelloScenario.node[1].wlan[0].mac.dcf packetSentToPeerWithoutRetry:sum(packetBytes) 0
attr interpolationmode none
attr source ieee80211NotRetry(packetSentToPeer)
attr title "packets sent: without retry, sum(packetBytes)"
scalar SatelliteHelloScenario.node[1].wlan[0].mac.dcf packetDrop:count 0
attr interpolationmode none
attr source packetDropped
attr title "packet drops, count"
scalar SatelliteHelloScenario.node[1].wlan[0].mac.dcf packetDrop:sum(packetBytes) 0
attr interpolationmode none
attr source packetDropped
attr title "packet drops, sum(packetBytes)"
scalar SatelliteHelloScenario.node[1].wlan[0].mac.dcf packetDropNotAddressedToUs:count 0
attr interpolationmode none
attr source packetDropReasonIsNotAddressedToUs(packetDropped)
attr title "packet drops: not addressed to us, count"
scalar SatelliteHelloScenario.node[1].wlan[0].mac.dcf packetDropNotAddressedToUs:sum(packetBytes) 0
attr interpolationmode none
attr source packetDropReasonIsNotAddressedToUs(packetDropped)
attr title "packet drops: not addressed to us, sum(packetBytes)"
scalar SatelliteHelloScenario.node[1].wlan[0].mac.dcf packetDropQueueOverflow:count 0
attr interpolationmode none
attr source packetDropReasonIsQueueOverflow(packetDropped)
attr title "packet drops: queue overflow, count"
scalar SatelliteHelloScenario.node[1].wlan[0].mac.dcf packetDropQueueOverflow:sum(packetBytes) 0
attr interpolationmode none
attr source packetDropReasonIsQueueOverflow(packetDropped)
attr title "packet drops: queue overflow, sum(packetBytes)"
scalar SatelliteHelloScenario.node[1].wlan[0].mac.dcf packetDropRetryLimitReached:count 0
attr interpolationmode none
attr source packetDropReasonIsRetryLimitReached(packetDropped)
attr title "packet drops: retry limit reached, count"
scalar SatelliteHelloScenario.node[1].wlan[0].mac.dcf packetDropRetryLimitReached:sum(packetBytes) 0
attr interpolationmode none
attr source packetDropReasonIsRetryLimitReached(packetDropped)
attr title "packet drops: retry limit reached, sum(packetBytes)"
scalar SatelliteHelloScenario.node[1].wlan[0].mac.dcf linkBroken:count 0
attr interpolationmode none
attr title "link breaks, count"
scalar SatelliteHelloScenario.node[1].wlan[0].mac packetReceivedFromLower:count 0
attr interpolationmode none
attr title "packets received from lower layer, count"
scalar SatelliteHelloScenario.node[1].wlan[0].mac packetReceivedFromLower:sum(packetBytes) 0
attr interpolationmode none
attr title "packets received from lower layer, sum(packetBytes)"
scalar SatelliteHelloScenario.node[1].wlan[0].mac packetSentToLower:count 0
attr interpolationmode none
attr title "packets sent to lower layer, count"
scalar SatelliteHelloScenario.node[1].wlan[0].mac packetSentToLower:sum(packetBytes) 0
attr interpolationmode none
attr title "packets sent to lower layer, sum(packetBytes)"
scalar SatelliteHelloScenario.node[1].wlan[0].mac packetReceivedFromUpper:count 0
attr interpolationmode none
attr title "packets received from upper layer, count"
scalar SatelliteHelloScenario.node[1].wlan[0].mac packetReceivedFromUpper:sum(packetBytes) 0
attr interpolationmode none
attr title "packets received from upper layer, sum(packetBytes)"
scalar SatelliteHelloScenario.node[1].wlan[0].mac packetSentToUpper:count 0
attr interpolationmode none
attr title "packets sent to upper layer, count"
scalar SatelliteHelloScenario.node[1].wlan[0].mac packetSentToUpper:sum(packetBytes) 0
attr interpolationmode none
attr title "packets sent to upper layer, sum(packetBytes)"
scalar SatelliteHelloScenario.node[1].wlan[0].mac packetDrop:count 0
attr interpolationmode none
attr source packetDropped
attr title "packet drops, count"
scalar SatelliteHelloScenario.node[1].wlan[0].mac packetDrop:sum(packetBytes) 0
attr interpolationmode none
attr source packetDropped
attr title "packet drops, sum(packetBytes)"
scalar SatelliteHelloScenario.node[1].wlan[0].mac packetDropIncorrectlyReceived:count 0
attr interpolationmode none
attr source packetDropReasonIsIncorrectlyReceived(packetDropped)
attr title "packet drops: incorrectly received, count"
scalar SatelliteHelloScenario.node[1].wlan[0].mac packetDropIncorrectlyReceived:sum(packetBytes) 0
attr interpolationmode none
attr source packetDropReasonIsIncorrectlyReceived(packetDropped)
attr title "packet drops: incorrectly received, sum(packetBytes)"
scalar SatelliteHelloScenario.node[1].wlan[0].mac packetDropNotAddressedToUs:count 0
attr interpolationmode none
attr source packetDropReasonIsNotAddressedToUs(packetDropped)
attr title "packet drops: not addressed to us, count"
scalar SatelliteHelloScenario.node[1].wlan[0].mac packetDropNotAddressedToUs:sum(packetBytes) 0
attr interpolationmode none
attr source packetDropReasonIsNotAddressedToUs(packetDropped)
attr title "packet drops: not addressed to us, sum(packetBytes)"
scalar SatelliteHelloScenario.node[1].wlan[0].mac packetDropQueueOverflow:count 0
attr interpolationmode none
attr source packetDropReasonIsQueueOverflow(packetDropped)
attr title "packet drops: queue overflow, count"
scalar SatelliteHelloScenario.node[1].wlan[0].mac packetDropQueueOverflow:sum(packetBytes) 0
attr interpolationmode none
attr source packetDropReasonIsQueueOverflow(packetDropped)
attr title "packet drops: queue overflow, sum(packetBytes)"
scalar SatelliteHelloScenario.node[1].wlan[0].mac packetDropRetryLimitReached:count 0
attr interpolationmode none
attr source packetDropReasonIsRetryLimitReached(packetDropped)
attr title "packet drops: retry limit reached, count"
scalar SatelliteHelloScenario.node[1].wlan[0].mac packetDropRetryLimitReached:sum(packetBytes) 0
attr interpolationmode none
attr source packetDropReasonIsRetryLimitReached(packetDropped)
attr title "packet drops: retry limit reached, sum(packetBytes)"
scalar SatelliteHelloScenario.node[1].wlan[0].mac packetDropDuplicateDetected:count 0
attr interpolationmode none
attr source packetDropReasonIsDuplicateDetected(packetDropped)
attr title "packet drops: duplicate detected, count"
scalar SatelliteHelloScenario.node[1].wlan[0].mac packetDropDuplicateDetected:sum(packetBytes) 0
attr interpolationmode none
attr source packetDropReasonIsDuplicateDetected(packetDropped)
attr title "packet drops: duplicate detected, sum(packetBytes)"
scalar SatelliteHelloScenario.node[1].wlan[0].mac packetDropOther:count 0
attr interpolationmode none
attr source packetDropReasonIsOther(packetDropped)
attr title "packet drops: other, count"
scalar SatelliteHelloScenario.node[1].wlan[0].mac packetDropOther:sum(packetBytes) 0
attr interpolationmode none
attr source packetDropReasonIsOther(packetDropped)
attr title "packet drops: other, sum(packetBytes)"
scalar SatelliteHelloScenario.node[1].wlan[0].mac linkBroken:count 0
attr interpolationmode none
attr title "link breaks, count"
statistic SatelliteHelloScenario.node[1].wlan[0].radio radioChannel:histogram
field count 0
field mean -nan
field stddev nan
field min nan
field max nan
field sum 0
field sqrsum 0
attr interpolationmode sample-hold
attr source radioChannelChanged
attr title "Radio channel, histogram"
bin	-inf	0
bin	0	0
bin	1	0
scalar SatelliteHelloScenario.node[1].wlan[0].radio radioMode:count 0
attr interpolationmode sample-hold
attr source radioModeChanged
attr title "Radio mode, count"
scalar SatelliteHelloScenario.node[1].wlan[0].radio receptionState:count 0
attr interpolationmode sample-hold
attr source receptionStateChanged
attr title "Radio reception state, count"
scalar SatelliteHelloScenario.node[1].wlan[0].radio transmissionState:count 0
attr interpolationmode sample-hold
attr source transmissionStateChanged
attr title "Radio transmission state, count"
statistic SatelliteHelloScenario.node[1].wlan[0].radio minSnir:histogram
field count 0
field mean -nan
field stddev nan
field min nan
field max nan
field sum 0
field sqrsum 0
attr source minimumSnir(packetSentToUpper)
attr title "Min SNIR, histogram"
bin	-inf	0
bin	0	0
bin	1	0
statistic SatelliteHelloScenario.node[1].wlan[0].radio packetErrorRate:histogram
field count 0
field mean -nan
field stddev nan
field min nan
field max nan
field sum 0
field sqrsum 0
attr source packetErrorRate(packetSentToUpper)
attr title "Packet error rate, histogram"
bin	-inf	0
bin	0	0
bin	1	0
statistic SatelliteHelloScenario.node[1].wlan[0].radio bitErrorRate:histogram
field count 0
field mean -nan
field stddev nan
field min nan
field max nan
field sum 0
field sqrsum 0
attr source bitErrorRate(packetSentToUpper)
attr title "Bit error rate, histogram"
bin	-inf	0
bin	0	0
bin	1	0
statistic SatelliteHelloScenario.node[1].wlan[0].radio symbolErrorRate:histogram
field count 0
field mean -nan
field stddev nan
field min nan
field max nan
field sum 0
field sqrsum 0
attr source symbolErrorRate(packetSentToUpper)
attr title "Symbol error rate, histogram"
bin	-inf	0
bin	0	0
bin	1	0
scalar SatelliteHelloScenario.node[1].ipv4.ip packetDropAddressResolutionFailed:count 0
attr interpolationmode none
attr source packetDropReasonIsAddressResolutionFailed(packetDropped)
attr title "packet drop: address resolution failed, count"
scalar SatelliteHelloScenario.node[1].ipv4.ip packetDropAddressResolutionFailed:sum(packetBytes) 0
attr interpolationmode none
attr source packetDropReasonIsAddressResolutionFailed(packetDropped)
attr title "packet drop: address resolution failed, sum(packetBytes)"
scalar SatelliteHelloScenario.node[1].ipv4.ip packetDropHopLimitReached:count 0
attr interpolationmode none
attr source packetDropReasonIsHopLimitReached(packetDropped)
attr title "packet drop: hop limit reached, count"
scalar SatelliteHelloScenario.node[1].ipv4.ip packetDropHopLimitReached:sum(packetBytes) 0
attr interpolationmode none
attr source packetDropReasonIsHopLimitReached(packetDropped)
attr title "packet drop: hop limit reached, sum(packetBytes)"
scalar SatelliteHelloScenario.node[1].ipv4.ip packetDropForwardingDisabled:count 0
attr interpolationmode none
attr source packetDropReasonIsForwardingDisabled(packetDropped)
attr title "packet drop: forwarding disabled, count"
scalar SatelliteHelloScenario.node[1].ipv4.ip packetDropForwardingDisabled:sum(packetBytes) 0
attr interpolationmode none
attr source packetDropReasonIsForwardingDisabled(packetDropped)
attr title "packet drop: forwarding disabled, sum(packetBytes)"
scalar SatelliteHelloScenario.node[1].ipv4.ip packetDropNoInterfaceFound:count 0
attr interpolationmode none
attr source packetDropReasonIsNoInterfaceFound(packetDropped)
attr title "packet drop: no interface found, count"
scalar SatelliteHelloScenario.node[1].ipv4.ip packetDropNoInterfaceFound:sum(packetBytes) 0
attr interpolationmode none
attr source packetDropReasonIsNoInterfaceFound(packetDropped)
attr title "packet drop: no interface found, sum(packetBytes)"
scalar SatelliteHelloScenario.node[1].ipv4.ip packetDropNoRouteFound:count 0
attr interpolationmode none
attr source packetDropReasonIsNoRouteFound(packetDropped)
attr title "packet drop: no route found, count"
scalar SatelliteHelloScenario.node[1].ipv4.ip packetDropNoRouteFound:sum(packetBytes) 0
attr interpolationmode none
attr source packetDropReasonIsNoRouteFound(packetDropped)
attr title "packet drop: no route found, sum(packetBytes)"
scalar SatelliteHelloScenario.node[1].ipv4.ip packetDropUndefined:count 0
attr interpolationmode none
attr source packetDropReasonIsUndefined(packetDropped)
attr title "packet drop: undefined, count"
scalar SatelliteHelloScenario.node[1].ipv4.ip packetDropUndefined:sum(packetBytes) 0
attr interpolationmode none
attr source packetDropReasonIsUndefined(packetDropped)
attr title "packet drop: undefined, sum(packetBytes)"
scalar SatelliteHelloScenario.node[1].ipv4.arp arpResolutionFailed:count 0
attr title "ARP failed resolutions, count"
scalar SatelliteHelloScenario.node[1].ipv4.arp arpResolutionCompleted:count 0
attr title "ARP completed resolutions, count"
scalar SatelliteHelloScenario.node[1].ipv4.arp arpResolutionInitiated:count 0
attr title "ARP initiated resolutions, count"
scalar SatelliteHelloScenario.node[1].ipv4.arp arpReplySent:count 0
attr source arpReplySent
attr title "ARP replies sent, count"
scalar SatelliteHelloScenario.node[1].ipv4.arp arpReplySent:sum(packetBytes) 0
attr source arpReplySent
attr title "ARP replies sent, sum(packetBytes)"
scalar SatelliteHelloScenario.node[1].ipv4.arp arpRequestSent:count 0
attr source arpRequestSent
attr title "ARP request sent, count"
scalar SatelliteHelloScenario.node[1].ipv4.arp arpRequestSent:sum(packetBytes) 0
attr source arpRequestSent
attr title "ARP request sent, sum(packetBytes)"
scalar SatelliteHelloScenario.node[1].udp packetReceived:count 0
attr interpolationmode none
attr source packetReceived
attr title "packets received, count"
scalar SatelliteHelloScenario.node[1].udp packetReceived:sum(packetBytes) 0
attr interpolationmode none
attr source packetReceived
attr title "packets received, sum(packetBytes)"
scalar SatelliteHelloScenario.node[1].udp packetSent:count 0
attr interpolationmode none
attr source packetSent
attr title "packets sent, count"
scalar SatelliteHelloScenario.node[1].udp packetSent:sum(packetBytes) 0
attr interpolationmode none
attr source packetSent
attr title "packets sent, sum(packetBytes)"
scalar SatelliteHelloScenario.node[1].udp passedUpPk:count 0
attr interpolationmode none
attr source packetSentToUpper
attr title "packets passed up, count"
scalar SatelliteHelloScenario.node[1].udp droppedPkWrongPort:count 0
attr interpolationmode none
attr source packetDropReasonIsNoPortFound(packetDropped)
attr title "packets dropped (wrong port), count"
scalar SatelliteHelloScenario.node[1].udp droppedPkBadChecksum:count 0
attr interpolationmode none
attr source packetDropReasonIsIncorrectlyReceived(packetDropped)
attr title "packets dropped (checksum error), count"
scalar SatelliteHelloScenario.node[1].app[0] "packets sent" 0
scalar SatelliteHelloScenario.node[1].app[0] "packets received" 0
scalar SatelliteHelloScenario.node[1].app[0] packetReceived:count 0
attr interpolationmode none
attr source packetReceived
attr title "packets received, count"
scalar SatelliteHelloScenario.node[1].app[0] packetReceived:sum(packetBytes) 0
attr interpolationmode none
attr source packetReceived
attr title "packets received, sum(packetBytes)"
statistic SatelliteHelloScenario.node[1].app[0] rcvdPkLifetime:stats
field count 0
field mean -nan
field stddev nan
field min nan
field max nan
field sum 0
field sqrsum 0
attr interpolationmode none
attr source dataAge(packetReceived)
attr title "received packet lifetime, stats"
attr unit s
scalar SatelliteHelloScenario.node[1].app[0] packetSent:count 0
attr interpolationmode none
attr source packetSent
attr title "packets sent, count"
scalar SatelliteHelloScenario.node[1].app[0] packetSent:sum(packetBytes) 0
attr interpolationmode none
attr source packetSent
attr title "packets sent, sum(packetBytes)"
scalar SatelliteHelloScenario.node[1].satNic[0].mac.queue packetPopped:count 0
attr interpolationmode none
attr title "packet popped, count"
scalar SatelliteHelloScenario.node[1].satNic[0].mac.queue packetPopped:sum(packetBytes) 0
attr interpolationmode none
attr title "packet popped, sum(packetBytes)"
statistic SatelliteHelloScenario.node[1].satNic[0].mac.queue queueingTime:histogram
field count 0
field mean -nan
field stddev nan
field min nan
field max nan
field sum 0
field sqrsum 0
attr interpolationmode none
attr source queueingTime(packetPopped)
attr title "queueing times, histogram"
attr unit s
bin	-inf	0
bin	0	0
bin	1	0
scalar SatelliteHelloScenario.node[1].satNic[0].mac.queue queueLength:max nan
attr interpolationmode sample-hold
attr source "count(packetPushed) - count(packetPopped) - count(packetRemoved) - count(packetDropped)"
attr title "queue length, max"
scalar SatelliteHelloScenario.node[1].satNic[0].mac.queue queueLength:timeavg -nan
attr interpolationmode sample-hold
attr source "count(packetPushed) - count(packetPopped) - count(packetRemoved) - count(packetDropped)"
attr title "queue length, timeavg"
scalar SatelliteHelloScenario.node[1].satNic[0].mac.queue packetPushed:count 0
attr interpolationmode none
attr title "packet pushed, count"
scalar SatelliteHelloScenario.node[1].satNic[0].mac.queue packetPushed:sum(packetBytes) 0
attr interpolationmode none
attr title "packet pushed, sum(packetBytes)"
scalar SatelliteHelloScenario.node[1].satNic[0].mac.queue packetDropQueueOverflow:count 0
attr interpolationmode none
attr source packetDropReasonIsQueueOverflow(packetDropped)
attr title "packet drops: queue overflow, count"
scalar SatelliteHelloScenario.node[1].satNic[0].mac.queue packetDropQueueOverflow:sum(packetBytes) 0
attr interpolationmode none
attr source packetDropReasonIsQueueOverflow(packetDropped)
attr title "packet drops: queue overflow, sum(packetBytes)"
scalar SatelliteHelloScenario.node[1].satNic[0].mac.queue packetRemoved:count 0
attr interpolationmode none
attr title "packets removed, count"
scalar SatelliteHelloScenario.node[1].satNic[0].mac.queue packetRemoved:sum(packetBytes) 0
attr interpolationmode none
attr title "packets removed, sum(packetBytes)"
scalar SatelliteHelloScenario.node[1].satNic[0].mac rcvdPkFromLl:count 0
attr interpolationmode none
attr source packetReceivedFromLower
attr title "packets received from lower layer, count"
scalar SatelliteHelloScenario.node[1].satNic[0].mac rcvdPkFromLl:sum(packetBytes) 0
attr interpolationmode none
attr source packetReceivedFromLower
attr title "packets received from lower layer, sum(packetBytes)"
scalar SatelliteHelloScenario.node[1].satNic[0].mac sentDownPk:count 0
attr interpolationmode none
attr source packetSentToLower
attr title "packets sent to lower layer, count"
scalar SatelliteHelloScenario.node[1].satNic[0].mac sentDownPk:sum(packetBytes) 0
attr interpolationmode none
attr source packetSentToLower
attr title "packets sent to lower layer, sum(packetBytes)"
scalar SatelliteHelloScenario.node[1].satNic[0].mac rcvdPkFromHl:count 0
attr interpolationmode none
attr source packetReceivedFromUpper
attr title "packets received from higher layer, count"
scalar SatelliteHelloScenario.node[1].satNic[0].mac rcvdPkFromHl:sum(packetBytes) 0
attr interpolationmode none
attr source packetReceivedFromUpper
attr title "packets received from higher layer, sum(packetBytes)"
scalar SatelliteHelloScenario.node[1].satNic[0].mac passedUpPk:count 0
attr interpolationmode none
attr source packetSentToUpper
attr title "packets passed to higher layer, count"
scalar SatelliteHelloScenario.node[1].satNic[0].mac passedUpPk:sum(packetBytes) 0
attr interpolationmode none
attr source packetSentToUpper
attr title "packets passed to higher layer, sum(packetBytes)"
scalar SatelliteHelloScenario.node[1].satNic[0].mac packetDropIncorrectlyReceived:count 0
attr interpolationmode none
attr source packetDropReasonIsIncorrectlyReceived(packetDropped)
attr title "packet drop: incorrectly received, count"
scalar SatelliteHelloScenario.node[1].satNic[0].mac packetDropIncorrectlyReceived:sum(packetBytes) 0
attr interpolationmode none
attr source packetDropReasonIsIncorrectlyReceived(packetDropped)
attr title "packet drop: incorrectly received, sum(packetBytes)"
scalar SatelliteHelloScenario.node[1].satNic[0].mac packetDropInterfaceDown:count 0
attr interpolationmode none
attr source packetDropReasonIsInterfaceDown(packetDropped)
attr title "packet drop: interface down, count"
scalar SatelliteHelloScenario.node[1].satNic[0].mac packetDropInterfaceDown:sum(packetBytes) 0
attr interpolationmode none
attr source packetDropReasonIsInterfaceDown(packetDropped)
attr title "packet drop: interface down, sum(packetBytes)"
scalar SatelliteHelloScenario.node[1].satNic[0].mac packetDropNotAddressedToUs:count 0
attr interpolationmode none
attr source packetDropReasonIsNotAddressedToUs(packetDropped)
attr title "packet drop: not addressed to us, count"
scalar SatelliteHelloScenario.node[1].satNic[0].mac packetDropNotAddressedToUs:sum(packetBytes) 0
attr interpolationmode none
attr source packetDropReasonIsNotAddressedToUs(packetDropped)
attr title "packet drop: not addressed to us, sum(packetBytes)"
scalar SatelliteHelloScenario.node[1].satNic[0].mac linkBroken:count 0
attr interpolationmode none
attr source linkBroken
attr title "link break, count"
scalar SatelliteHelloScenario.node[1].satNic[0].radio radioMode:count 0
attr interpolationmode sample-hold
attr source radioModeChanged
attr title "Radio mode, count"
scalar SatelliteHelloScenario.node[1].satNic[0].radio receptionState:count 0
attr interpolationmode sample-hold
attr source receptionStateChanged
attr title "Radio reception state, count"
scalar SatelliteHelloScenario.node[1].satNic[0].radio transmissionState:count 0
attr interpolationmode sample-hold
attr source transmissionStateChanged
attr title "Radio transmission state, count"
statistic SatelliteHelloScenario.node[1].satNic[0].radio minSnir:histogram
field count 0
field mean -nan
field stddev nan
field min nan
field max nan
field sum 0
field sqrsum 0
attr source minimumSnir(packetSentToUpper)
attr title "Min SNIR, histogram"
bin	-inf	0
bin	0	0
bin	1	0
statistic SatelliteHelloScenario.node[1].satNic[0].radio packetErrorRate:histogram
field count 0
field mean -nan
field stddev nan
field min nan
field max nan
field sum 0
field sqrsum 0
attr source packetErrorRate(packetSentToUpper)
attr title "Packet error rate, histogram"
bin	-inf	0
bin	0	0
bin	1	0
statistic SatelliteHelloScenario.node[1].satNic[0].radio bitErrorRate:histogram
field count 0
field mean -nan
field stddev nan
field min nan
field max nan
field sum 0
field sqrsum 0
attr source bitErrorRate(packetSentToUpper)
attr title "Bit error rate, histogram"
bin	-inf	0
bin	0	0
bin	1	0
statistic SatelliteHelloScenario.node[1].satNic[0].radio symbolErrorRate:histogram
field count 0
field mean -nan
field stddev nan
field min nan
field max nan
field sum 0
field sqrsum 0
attr source symbolErrorRate(packetSentToUpper)
attr title "Symbol error rate, histogram"
bin	-inf	0
bin	0	0
bin	1	0
scalar SatelliteHelloScenario.node[1].vehicleStatistics wlanPacketEndToEndDelay:min nan
attr source space_veins_vehicleStatistics_wlanPacketEndToEndDelay
scalar SatelliteHelloScenario.node[1].vehicleStatistics wlanPacketEndToEndDelay:max nan
attr source space_veins_vehicleStatistics_wlanPacketEndToEndDelay
scalar SatelliteHelloScenario.node[1].vehicleStatistics wlanPacketEndToEndDelay:avg -nan
attr source space_veins_vehicleStatistics_wlanPacketEndToEndDelay
scalar SatelliteHelloScenario.node[1].vehicleStatistics registeredVehiclesPerSchedule:min nan
attr source space_veins_vehicleStatistics_registeredVehiclesPerSchedule
scalar SatelliteHelloScenario.node[1].vehicleStatistics registeredVehiclesPerSchedule:max nan
attr source space_veins_vehicleStatistics_registeredVehiclesPerSchedule
scalar SatelliteHelloScenario.node[1].vehicleStatistics registeredVehiclesPerSchedule:avg -nan
attr source space_veins_vehicleStatistics_registeredVehiclesPerSchedule
scalar SatelliteHelloScenario.node[1].vehicleStatistics vehAppLat:min nan
attr source space_veins_vehicleStatistics_applLayerSatelliteLatency
scalar SatelliteHelloScenario.node[1].vehicleStatistics vehAppLat:max nan
attr source space_veins_vehicleStatistics_applLayerSatelliteLatency
scalar SatelliteHelloScenario.node[1].vehicleStatistics vehAppLat:avg -nan
attr source space_veins_vehicleStatistics_applLayerSatelliteLatency
scalar SatelliteHelloScenario.node[1].vehicleStatistics vehAppRtt:min nan
attr source space_veins_vehicleStatistics_applLayerRoundTripTime
scalar SatelliteHelloScenario.node[1].vehicleStatistics vehAppRtt:max nan
attr source space_veins_vehicleStatistics_applLayerRoundTripTime
scalar SatelliteHelloScenario.node[1].vehicleStatistics vehAppRtt:avg -nan
attr source space_veins_vehicleStatistics_applLayerRoundTripTime
scalar SatelliteHelloScenario.node[1].vehicleStatistics receivedSatelliteRegistrationAcks:count 0
[...]
attr interpolationmode none
attr source packetDropReasonIsRetryLimitReached(packetDropped)
attr title "packet drops: retry limit reached, count"
scalar SatelliteHelloScenario.node[2].wlan[0].mac packetDropRetryLimitReached:sum(packetBytes) 0
attr interpolationmode none
attr source packetDropReasonIsRetryLimitReached(packetDropped)
attr title "packet drops: retry limit reached, sum(packetBytes)"
scalar SatelliteHelloScenario.node[2].wlan[0].mac packetDropDuplicateDetected:count 0
attr interpolationmode none
attr source packetDropReasonIsDuplicateDetected(packetDropped)
attr title "packet drops: duplicate detected, count"
scalar SatelliteHelloScenario.node[2].wlan[0].mac packetDropDuplicateDetected:sum(packetBytes) 0
attr interpolationmode none
attr source packetDropReasonIsDuplicateDetected(packetDropped)
attr title "packet drops: duplicate detected, sum(packetBytes)"
scalar SatelliteHelloScenario.node[2].wlan[0].mac packetDropOther:count 0
attr interpolationmode none
attr source packetDropReasonIsOther(packetDropped)
attr title "packet drops: other, count"
scalar SatelliteHelloScenario.node[2].wlan[0].mac packetDropOther:sum(packetBytes) 0
attr interpolationmode none
attr source packetDropReasonIsOther(packetDropped)
attr title "packet drops: other, sum(packetBytes)"
scalar SatelliteHelloScenario.node[2].wlan[0].mac linkBroken:count 0
attr interpolationmode none
attr title "link breaks, count"
statistic SatelliteHelloScenario.node[2].wlan[0].radio radioChannel:histogram
field count 0
field mean -nan
field stddev nan
field min nan
field max nan
field sum 0
field sqrsum 0
attr interpolationmode sample-hold
attr source radioChannelChanged
attr title "Radio channel, histogram"
bin	-inf	0
bin	0	0
bin	1	0
scalar SatelliteHelloScenario.node[2].wlan[0].radio radioMode:count 0
attr interpolationmode sample-hold
attr source radioModeChanged
attr title "Radio mode, count"
scalar SatelliteHelloScenario.node[2].wlan[0].radio receptionState:count 0
attr interpolationmode sample-hold
attr source receptionStateChanged
attr title "Radio reception state, count"
scalar SatelliteHelloScenario.node[2].wlan[0].radio transmissionState:count 0
attr interpolationmode sample-hold
attr source transmissionStateChanged
attr title "Radio transmission state, count"
statistic SatelliteHelloScenario.node[2].wlan[0].radio minSnir:histogram
field count 0
field mean -nan
field stddev nan
field min nan
field max nan
field sum 0
field sqrsum 0
attr source minimumSnir(packetSentToUpper)
attr title "Min SNIR, histogram"
bin	-inf	0
bin	0	0
bin	1	0
statistic SatelliteHelloScenario.node[2].wlan[0].radio packetErrorRate:histogram
field count 0
field mean -nan
field stddev nan
field min nan
field max nan
field sum 0
field sqrsum 0
attr source packetErrorRate(packetSentToUpper)
attr title "Packet error rate, histogram"
bin	-inf	0
bin	0	0
bin	1	0
statistic SatelliteHelloScenario.node[2].wlan[0].radio bitErrorRate:histogram
field count 0
field mean -nan
field stddev nan
field min nan
field max nan
field sum 0
field sqrsum 0
attr source bitErrorRate(packetSentToUpper)
attr title "Bit error rate, histogram"
bin	-inf	0
bin	0	0
bin	1	0
statistic SatelliteHelloScenario.node[2].wlan[0].radio symbolErrorRate:histogram
field count 0
field mean -nan
field stddev nan
field min nan
field max nan
field sum 0
field sqrsum 0
attr source symbolErrorRate(packetSentToUpper)
attr title "Symbol error rate, histogram"
bin	-inf	0
bin	0	0
bin	1	0
scalar SatelliteHelloScenario.node[2].ipv4.ip packetDropAddressResolutionFailed:count 0
attr interpolationmode none
attr source packetDropReasonIsAddressResolutionFailed(packetDropped)
attr title "packet drop: address resolution failed, count"
scalar SatelliteHelloScenario.node[2].ipv4.ip packetDropAddressResolutionFailed:sum(packetBytes) 0
attr interpolationmode none
attr source packetDropReasonIsAddressResolutionFailed(packetDropped)
attr title "packet drop: address resolution failed, sum(packetBytes)"
scalar SatelliteHelloScenario.node[2].ipv4.ip packetDropHopLimitReached:count 0
attr interpolationmode none
attr source packetDropReasonIsHopLimitReached(packetDropped)
attr title "packet drop: hop limit reached, count"
scalar SatelliteHelloScenario.node[2].ipv4.ip packetDropHopLimitReached:sum(packetBytes) 0
attr interpolationmode none
attr source packetDropReasonIsHopLimitReached(packetDropped)
attr title "packet drop: hop limit reached, sum(packetBytes)"
scalar SatelliteHelloScenario.node[2].ipv4.ip packetDropForwardingDisabled:count 0
attr interpolationmode none
attr source packetDropReasonIsForwardingDisabled(packetDropped)
attr title "packet drop: forwarding disabled, count"
scalar SatelliteHelloScenario.node[2].ipv4.ip packetDropForwardingDisabled:sum(packetBytes) 0
attr interpolationmode none
attr source packetDropReasonIsForwardingDisabled(packetDropped)
attr title "packet drop: forwarding disabled, sum(packetBytes)"
scalar SatelliteHelloScenario.node[2].ipv4.ip packetDropNoInterfaceFound:count 0
attr interpolationmode none
attr source packetDropReasonIsNoInterfaceFound(packetDropped)
attr title "packet drop: no interface found, count"
scalar SatelliteHelloScenario.node[2].ipv4.ip packetDropNoInterfaceFound:sum(packetBytes) 0
attr interpolationmode none
attr source packetDropReasonIsNoInterfaceFound(packetDropped)
attr title "packet drop: no interface found, sum(packetBytes)"
scalar SatelliteHelloScenario.node[2].ipv4.ip packetDropNoRouteFound:count 0
attr interpolationmode none
attr source packetDropReasonIsNoRouteFound(packetDropped)
attr title "packet drop: no route found, count"
scalar SatelliteHelloScenario.node[2].ipv4.ip packetDropNoRouteFound:sum(packetBytes) 0
attr interpolationmode none
attr source packetDropReasonIsNoRouteFound(packetDropped)
attr title "packet drop: no route found, sum(packetBytes)"
scalar SatelliteHelloScenario.node[2].ipv4.ip packetDropUndefined:count 0
attr interpolationmode none
attr source packetDropReasonIsUndefined(packetDropped)
attr title "packet drop: undefined, count"
scalar SatelliteHelloScenario.node[2].ipv4.ip packetDropUndefined:sum(packetBytes) 0
attr interpolationmode none
attr source packetDropReasonIsUndefined(packetDropped)
attr title "packet drop: undefined, sum(packetBytes)"
scalar SatelliteHelloScenario.node[2].ipv4.arp arpResolutionFailed:count 0
attr title "ARP failed resolutions, count"
scalar SatelliteHelloScenario.node[2].ipv4.arp arpResolutionCompleted:count 0
attr title "ARP completed resolutions, count"
scalar SatelliteHelloScenario.node[2].ipv4.arp arpResolutionInitiated:count 0
attr title "ARP initiated resolutions, count"
scalar SatelliteHelloScenario.node[2].ipv4.arp arpReplySent:count 0
attr source arpReplySent
attr title "ARP replies sent, count"
scalar SatelliteHelloScenario.node[2].ipv4.arp arpReplySent:sum(packetBytes) 0
attr source arpReplySent
attr title "ARP replies sent, sum(packetBytes)"
scalar SatelliteHelloScenario.node[2].ipv4.arp arpRequestSent:count 0
attr source arpRequestSent
attr title "ARP request sent, count"
scalar SatelliteHelloScenario.node[2].ipv4.arp arpRequestSent:sum(packetBytes) 0
attr source arpRequestSent
attr title "ARP request sent, sum(packetBytes)"
scalar SatelliteHelloScenario.node[2].udp packetReceived:count 0
attr interpolationmode none
attr source packetReceived
attr title "packets received, count"
scalar SatelliteHelloScenario.node[2].udp packetReceived:sum(packetBytes) 0
attr interpolationmode none
attr source packetReceived
attr title "packets received, sum(packetBytes)"
scalar SatelliteHelloScenario.node[2].udp packetSent:count 0
attr interpolationmode none
attr source packetSent
attr title "packets sent, count"
scalar SatelliteHelloScenario.node[2].udp packetSent:sum(packetBytes) 0
attr interpolationmode none
attr source packetSent
attr title "packets sent, sum(packetBytes)"
scalar SatelliteHelloScenario.node[2].udp passedUpPk:count 0
attr interpolationmode none
attr source packetSentToUpper
attr title "packets passed up, count"
scalar SatelliteHelloScenario.node[2].udp droppedPkWrongPort:count 0
attr interpolationmode none
attr source packetDropReasonIsNoPortFound(packetDropped)
attr title "packets dropped (wrong port), count"
scalar SatelliteHelloScenario.node[2].udp droppedPkBadChecksum:count 0
attr interpolationmode none
attr source packetDropReasonIsIncorrectlyReceived(packetDropped)
attr title "packets dropped (checksum error), count"
scalar SatelliteHelloScenario.node[2].app[0] "packets sent" 1
scalar SatelliteHelloScenario.node[2].app[0] "packets received" 1
scalar SatelliteHelloScenario.node[2].app[0] packetReceived:count 0
attr interpolationmode none
attr source packetReceived
attr title "packets received, count"
scalar SatelliteHelloScenario.node[2].app[0] packetReceived:sum(packetBytes) 0
attr interpolationmode none
attr source packetReceived
attr title "packets received, sum(packetBytes)"
statistic SatelliteHelloScenario.node[2].app[0] rcvdPkLifetime:stats
field count 0
field mean -nan
field stddev nan
field min nan
field max nan
field sum 0
field sqrsum 0
attr interpolationmode none
attr source dataAge(packetReceived)
attr title "received packet lifetime, stats"
attr unit s
scalar SatelliteHelloScenario.node[2].app[0] packetSent:count 0
attr interpolationmode none
attr source packetSent
attr title "packets sent, count"
scalar SatelliteHelloScenario.node[2].app[0] packetSent:sum(packetBytes) 0
attr interpolationmode none
attr source packetSent
attr title "packets sent, sum(packetBytes)"
scalar SatelliteHelloScenario.node[2].satNic[0].mac.queue packetPopped:count 0
attr interpolationmode none
attr title "packet popped, count"
scalar SatelliteHelloScenario.node[2].satNic[0].mac.queue packetPopped:sum(packetBytes) 0
attr interpolationmode none
attr title "packet popped, sum(packetBytes)"
statistic SatelliteHelloScenario.node[2].satNic[0].mac.queue queueingTime:histogram
field count 0
field mean -nan
field stddev nan
field min nan
field max nan
field sum 0
field sqrsum 0
attr interpolationmode none
attr source queueingTime(packetPopped)
attr title "queueing times, histogram"
attr unit s
bin	-inf	0
bin	0	0
bin	1	0
scalar SatelliteHelloScenario.node[2].satNic[0].mac.queue queueLength:max nan
attr interpolationmode sample-hold
attr source "count(packetPushed) - count(packetPopped) - count(packetRemoved) - count(packetDropped)"
attr title "queue length, max"
scalar SatelliteHelloScenario.node[2].satNic[0].mac.queue queueLength:timeavg -nan
attr interpolationmode sample-hold
attr source "count(packetPushed) - count(packetPopped) - count(packetRemoved) - count(packetDropped)"
attr title "queue length, timeavg"
scalar SatelliteHelloScenario.node[2].satNic[0].mac.queue packetPushed:count 0
attr interpolationmode none
attr title "packet pushed, count"
scalar SatelliteHelloScenario.node[2].satNic[0].mac.queue packetPushed:sum(packetBytes) 0
attr interpolationmode none
attr title "packet pushed, sum(packetBytes)"
scalar SatelliteHelloScenario.node[2].satNic[0].mac.queue packetDropQueueOverflow:count 0
attr interpolationmode none
attr source packetDropReasonIsQueueOverflow(packetDropped)
attr title "packet drops: queue overflow, count"
scalar SatelliteHelloScenario.node[2].satNic[0].mac.queue packetDropQueueOverflow:sum(packetBytes) 0
attr interpolationmode none
attr source packetDropReasonIsQueueOverflow(packetDropped)
attr title "packet drops: queue overflow, sum(packetBytes)"
scalar SatelliteHelloScenario.node[2].satNic[0].mac.queue packetRemoved:count 0
attr interpolationmode none
attr title "packets removed, count"
scalar SatelliteHelloScenario.node[2].satNic[0].mac.queue packetRemoved:sum(packetBytes) 0
attr interpolationmode none
attr title "packets removed, sum(packetBytes)"
scalar SatelliteHelloScenario.node[2].satNic[0].mac rcvdPkFromLl:count 0
attr interpolationmode none
attr source packetReceivedFromLower
attr title "packets received from lower layer, count"
scalar SatelliteHelloScenario.node[2].satNic[0].mac rcvdPkFromLl:sum(packetBytes) 0
attr interpolationmode none
attr source packetReceivedFromLower
attr title "packets received from lower layer, sum(packetBytes)"
scalar SatelliteHelloScenario.node[2].satNic[0].mac sentDownPk:count 0
attr interpolationmode none
attr source packetSentToLower
attr title "packets sent to lower layer, count"
scalar SatelliteHelloScenario.node[2].satNic[0].mac sentDownPk:sum(packetBytes) 0
attr interpolationmode none
attr source packetSentToLower
attr title "packets sent to lower layer, sum(packetBytes)"
scalar SatelliteHelloScenario.node[2].satNic[0].mac rcvdPkFromHl:count 0
attr interpolationmode none
attr source packetReceivedFromUpper
attr title "packets received from higher layer, count"
scalar SatelliteHelloScenario.node[2].satNic[0].mac rcvdPkFromHl:sum(packetBytes) 0
attr interpolationmode none
attr source packetReceivedFromUpper
attr title "packets received from higher layer, sum(packetBytes)"
scalar SatelliteHelloScenario.node[2].satNic[0].mac passedUpPk:count 0
attr interpolationmode none
attr source packetSentToUpper
attr title "packets passed to higher layer, count"
scalar SatelliteHelloScenario.node[2].satNic[0].mac passedUpPk:sum(packetBytes) 0
attr interpolationmode none
attr source packetSentToUpper
attr title "packets passed to higher layer, sum(packetBytes)"
scalar SatelliteHelloScenario.node[2].satNic[0].mac packetDropIncorrectlyReceived:count 0
attr interpolationmode none
attr source packetDropReasonIsIncorrectlyReceived(packetDropped)
attr title "packet drop: incorrectly received, count"
scalar SatelliteHelloScenario.node[2].satNic[0].mac packetDropIncorrectlyReceived:sum(packetBytes) 0
attr interpolationmode none
attr source packetDropReasonIsIncorrectlyReceived(packetDropped)
attr title "packet drop: incorrectly received, sum(packetBytes)"
scalar SatelliteHelloScenario.node[2].satNic[0].mac packetDropInterfaceDown:count 0
attr interpolationmode none
attr source packetDropReasonIsInterfaceDown(packetDropped)
attr title "packet drop: interface down, count"
scalar SatelliteHelloScenario.node[2].satNic[0].mac packetDropInterfaceDown:sum(packetBytes) 0
attr interpolationmode none
attr source packetDropReasonIsInterfaceDown(packetDropped)
attr title "packet drop: interface down, sum(packetBytes)"
scalar SatelliteHelloScenario.node[2].satNic[0].mac packetDropNotAddressedToUs:count 0
attr interpolationmode none
attr source packetDropReasonIsNotAddressedToUs(packetDropped)
attr title "packet drop: not addressed to us, count"
scalar SatelliteHelloScenario.node[2].satNic[0].mac packetDropNotAddressedToUs:sum(packetBytes) 0
attr interpolationmode none
attr source packetDropReasonIsNotAddressedToUs(packetDropped)
attr title "packet drop: not addressed to us, sum(packetBytes)"
scalar SatelliteHelloScenario.node[2].satNic[0].mac linkBroken:count 0
attr interpolationmode none
attr source linkBroken
attr title "link break, count"
scalar SatelliteHelloScenario.node[2].satNic[0].radio radioMode:count 0
attr interpolationmode sample-hold
attr source radioModeChanged
attr title "Radio mode, count"
scalar SatelliteHelloScenario.node[2].satNic[0].radio receptionState:count 0
attr interpolationmode sample-hold
attr source receptionStateChanged
attr title "Radio reception state, count"
scalar SatelliteHelloScenario.node[2].satNic[0].radio transmissionState:count 0
attr interpolationmode sample-hold
attr source transmissionStateChanged
attr title "Radio transmission state, count"
statistic SatelliteHelloScenario.node[2].satNic[0].radio minSnir:histogram
field count 0
field mean -nan
field stddev nan
field min nan
field max nan
field sum 0
field sqrsum 0
attr source minimumSnir(packetSentToUpper)
attr title "Min SNIR, histogram"
bin	-inf	0
bin	0	0
bin	1	0
statistic SatelliteHelloScenario.node[2].satNic[0].radio packetErrorRate:histogram
field count 0
field mean -nan
field stddev nan
field min nan
field max nan
field sum 0
field sqrsum 0
attr source packetErrorRate(packetSentToUpper)
attr title "Packet error rate, histogram"
bin	-inf	0
bin	0	0
bin	1	0
statistic SatelliteHelloScenario.node[2].satNic[0].radio bitErrorRate:histogram
field count 0
field mean -nan
field stddev nan
field min nan
field max nan
field sum 0
field sqrsum 0
attr source bitErrorRate(packetSentToUpper)
attr title "Bit error rate, histogram"
bin	-inf	0
bin	0	0
bin	1	0
statistic SatelliteHelloScenario.node[2].satNic[0].radio symbolErrorRate:histogram
field count 0
field mean -nan
field stddev nan
field min nan
field max nan
field sum 0
field sqrsum 0
attr source symbolErrorRate(packetSentToUpper)
attr title "Symbol error rate, histogram"
bin	-inf	0
bin	0	0
bin	1	0
scalar SatelliteHelloScenario.node[2].vehicleStatistics wlanPacketEndToEndDelay:min nan
attr source space_veins_vehicleStatistics_wlanPacketEndToEndDelay
scalar SatelliteHelloScenario.node[2].vehicleStatistics wlanPacketEndToEndDelay:max nan
attr source space_veins_vehicleStatistics_wlanPacketEndToEndDelay
scalar SatelliteHelloScenario.node[2].vehicleStatistics wlanPacketEndToEndDelay:avg -nan
attr source space_veins_vehicleStatistics_wlanPacketEndToEndDelay
scalar SatelliteHelloScenario.node[2].vehicleStatistics registeredVehiclesPerSchedule:min nan
attr source space_veins_vehicleStatistics_registeredVehiclesPerSchedule
scalar SatelliteHelloScenario.node[2].vehicleStatistics registeredVehiclesPerSchedule:max nan
attr source space_veins_vehicleStatistics_registeredVehiclesPerSchedule
scalar SatelliteHelloScenario.node[2].vehicleStatistics registeredVehiclesPerSchedule:avg -nan
attr source space_veins_vehicleStatistics_registeredVehiclesPerSchedule
scalar SatelliteHelloScenario.node[2].vehicleStatistics vehAppLat:min nan
attr source space_veins_vehicleStatistics_applLayerSatelliteLatency
scalar SatelliteHelloScenario.node[2].vehicleStatistics vehAppLat:max nan
attr source space_veins_vehicleStatistics_applLayerSatelliteLatency
scalar SatelliteHelloScenario.node[2].vehicleStatistics vehAppLat:avg -nan
attr source space_veins_vehicleStatistics_applLayerSatelliteLatency
scalar SatelliteHelloScenario.node[2].vehicleStatistics vehAppRtt:min nan
attr source space_veins_vehicleStatistics_applLayerRoundTripTime
scalar SatelliteHelloScenario.node[2].vehicleStatistics vehAppRtt:max nan
attr source space_veins_vehicleStatistics_applLayerRoundTripTime
scalar SatelliteHelloScenario.node[2].vehicleStatistics vehAppRtt:avg -nan
attr source space_veins_vehicleStatistics_applLayerRoundTripTime
scalar SatelliteHelloScenario.node[2].vehicleStatistics receivedSatelliteRegistrationAcks:count 0
attr source space_veins_vehicleStatistics_receivedSatelliteRegistrationAcks
scalar SatelliteHelloScenario.node[2].vehicleStatistics missedSatelliteRegistrationAcks:count 0
attr source space_veins_vehicleStatistics_missedSatelliteRegistrationAcks
scalar SatelliteHelloScenario.node[2].vehicleStatistics receivedSatelliteRegistrationMessages:count 0
attr source space_veins_vehicleStatistics_receivedSatelliteRegistrationMessages
scalar SatelliteHelloScenario.node[2].vehicleStatistics sendSatelliteRegistrationMessages:count 0
attr source space_veins_vehicleStatistics_sendSatelliteRegistrationMessages
scalar SatelliteHelloScenario.node[2].vehicleStatistics receivedWlanSchedules:count 0
attr source space_veins_vehicleStatistics_receivedWlanSchedules
scalar SatelliteHelloScenario.node[2].vehicleStatistics sendWlanSchedules:count 0
attr source space_veins_vehicleStatistics_sendWlanSchedules
scalar SatelliteHelloScenario.node[2].vehicleStatistics receivedWlanPackets:count 0
attr source space_veins_vehicleStatistics_receivedWlanPackets
scalar SatelliteHelloScenario.node[2].vehicleStatistics sendWlanPackets:count 0
attr source space_veins_vehicleStatistics_sendWlanPackets
scalar SatelliteHelloScenario.node[2].vehicleStatistics receivedSatellitePackets:count 0
attr source space_veins_vehicleStatistics_receivedSatellitePackets
scalar SatelliteHelloScenario.node[2].vehicleStatistics sendSatellitePackets:count 0
attr source space_veins_vehicleStatistics_sendSatellitePackets

